*SPEF "1481-1998"
*DESIGN "bit_slice"
*DATE "Tue Aug 22 09:59:51 2017"
*VENDOR "Synopsys, Inc."
*PROGRAM "icc2 /global/apps/icc2_2016.12-SP2/linux64/nwtn/bin/icc2_exec"
*VERSION "M-2016.12-SP2 Feb 22, 2017"
*DESIGN_FLOW "ICC2 SPEF DR"
*DIVIDER /
*DELIMITER :
*T_UNIT 1 NS
*C_UNIT 1 FF
*R_UNIT 1 OHM
*L_UNIT 1 HENRY

// XY_UNIT 1 UM
// PARASITIC_TECH maxTLU at 125.000 degree

*NAME_MAP
*1 hclk
*2 lclk
*3 reset
*4 sin
*5 data_valid
*6 memory_sleep
*7 shut_down_signals[1]
*8 shut_down_signals[0]
*9 isolation_signals[1]
*10 isolation_signals[0]
*11 retention_signals[1]
*12 retention_signals[0]
*13 scan_enable
*14 sipo_scan_in
*15 piso_scan_in
*16 hv_scan_in
*17 lv_scan_in
*18 sipo_scan_out
*19 piso_scan_out
*20 hv_scan_out
*21 lv_scan_out
*22 sout
*23 memory_ack
*24 PG_ack_signals[1]
*25 PG_ack_signals[0]
*26 VDDH
*27 VDDL
*28 VSS
*29 piso_sw_out
*30 sipo_sw_out
*31 nibble_0
*32 nibble_1
*33 temp_0_reg
*34 temp_1_reg
*35 temp_2_reg
*36 load_data_from_memory_reg
*37 snps_PD_SIPO__ISO_SIPO2MEM_OUT2_snps_wrISO_SIPO2MEM_OUT2
*38 snps_PD_SIPO__ISO_SIPO_OUT_snps_addr_0_ISO_SIPO_OUT
*39 snps_PD_SIPO__ISO_SIPO_OUT_snps_addr_1_ISO_SIPO_OUT
*40 snps_PD_SIPO__ISO_SIPO_OUT_snps_addr_2_ISO_SIPO_OUT
*41 snps_PD_SIPO__ISO_SIPO_OUT_snps_pout_0_ISO_SIPO_OUT
*42 snps_PD_SIPO__ISO_SIPO_OUT_snps_pout_1_ISO_SIPO_OUT
*43 snps_PD_SIPO__ISO_SIPO_OUT_snps_pout_3_ISO_SIPO_OUT
*44 snps_PD_SIPO__ISO_SIPO_OUT_snps_pout_4_ISO_SIPO_OUT
*45 snps_PD_SIPO__ISO_SIPO_OUT_snps_pout_5_ISO_SIPO_OUT
*46 snps_PD_SIPO__ISO_SIPO_OUT_snps_pout_8_ISO_SIPO_OUT
*47 snps_PD_SIPO__ISO_SIPO_OUT_snps_pout_10_ISO_SIPO_OUT
*48 snps_PD_SIPO__ISO_SIPO_OUT_snps_pout_11_ISO_SIPO_OUT
*49 snps_PD_SIPO__ISO_SIPO_OUT_snps_pout_12_ISO_SIPO_OUT
*50 snps_PD_SIPO__ISO_SIPO_OUT_snps_pout_13_ISO_SIPO_OUT
*51 snps_PD_SIPO__ISO_SIPO_OUT_snps_pout_14_ISO_SIPO_OUT
*52 snps_PD_SIPO__ISO_SIPO_OUT_snps_pout_15_ISO_SIPO_OUT
*53 CLK_UPF_LS
*54 U10
*55 U11
*56 snps_PD_SIPO__ISO_SIPO_OUT_snps_addr_3_ISO_SIPO_OUT
*57 RLB__195
*58 RLB__196
*59 snps_PD_SIPO__ISO_SIPO_OUT_snps_scan_outISO_SIPO_OUT
*60 snps_PD_SIPO__ISO_SIPO_OUT_snps_pout_9_ISO_SIPO_OUT
*61 isolation_signals_0__UPF_LS
*62 EN_UPF_LS
*63 snps_PD_SIPO__ISO_SIPO_OUT_snps_pout_2_ISO_SIPO_OUT
*64 snps_PD_PISO__ISO_PISO_OUT_snps_scan_outISO_PISO_OUT
*65 snps_PD_SIPO__ISO_SIPO_OUT_snps_pout_6_ISO_SIPO_OUT
*66 snps_PD_SIPO__ISO_SIPO_OUT_snps_pout_7_ISO_SIPO_OUT
*67 sync_add2mem/dut_sync/BUFT_P_31
*68 U36
*69 U37
*70 lreset_sync/t_reset_sync_reg
*71 lreset_sync/CLK_UPF_LS
*72 lreset_sync/reset_sync_reg
*73 lreset_sync/U3
*74 hreset_sync/t_reset_sync_reg
*75 hreset_sync/reset_sync_reg
*76 hreset_sync/U3
*77 sipo_bit/U5
*78 sipo_bit/U7
*79 sipo_bit/U13
*80 sipo_bit/U15
*81 sipo_bit/U16
*82 sipo_bit/U17
*83 sipo_bit/U20
*84 sipo_bit/U21
*85 sipo_bit/U24
*86 sipo_bit/U25
*87 sipo_bit/U26
*88 sipo_bit/U27
*89 sipo_bit/U30
*90 sipo_bit/U31
*91 sipo_bit/U34
*92 sipo_bit/U35
*93 sipo_bit/U36
*94 sipo_bit/U38
*95 sipo_bit/U39
*96 sipo_bit/U41
*97 sipo_bit/U42
*98 sipo_bit/U43
*99 sipo_bit/U44
*100 sipo_bit/U45
*101 sipo_bit/U46
*102 sipo_bit/U47
*103 sipo_bit/U48
*104 sipo_bit/U49
*105 sipo_bit/U50
*106 sipo_bit/U51
*107 sipo_bit/U53
*108 sipo_bit/U54
*109 sipo_bit/U55
*110 sipo_bit/U56
*111 sipo_bit/U57
*112 sipo_bit/U58
*113 sipo_bit/U59
*114 sipo_bit/U60
*115 sipo_bit/U61
*116 sipo_bit/U62
*117 sipo_bit/U63
*118 sipo_bit/U64
*119 sipo_bit/U65
*120 sipo_bit/U66
*121 sipo_bit/U67
*122 sipo_bit/U68
*123 sipo_bit/U69
*124 sipo_bit/U78
*125 sipo_bit/U80
*126 sipo_bit/pout_reg_0_
*127 sipo_bit/addr_reg_1_
*128 sipo_bit/pout_reg_12_
*129 sipo_bit/pout_reg_3_
*130 sipo_bit/pout_reg_8_
*131 sipo_bit/pout_reg_11_
*132 sipo_bit/pout_reg_1_
*133 sipo_bit/pout_reg_13_
*134 sipo_bit/pout_reg_15_
*135 sipo_bit/pout_reg_9_
*136 sipo_bit/pout_reg_6_
*137 sipo_bit/pout_reg_10_
*138 sipo_bit/pout_reg_7_
*139 sipo_bit/pout_reg_4_
*140 sipo_bit/addr_reg_0_
*141 sipo_bit/pout_reg_14_
*142 sipo_bit/addr_reg_2_
*143 sipo_bit/pout_reg_2_
*144 sipo_bit/addr_reg_3_
*145 sipo_bit/pout_reg_5_
*146 sipo_bit/rd_addr_reg_3_
*147 sipo_bit/wr_tmp_reg
*148 sipo_bit/wr_0_reg
*149 sipo_bit/count_reg_3_
*150 sipo_bit/count_reg_2_
*151 sipo_bit/wr_addr_reg_1_
*152 sipo_bit/wr_addr_reg_3_
*153 sipo_bit/count_reg_1_
*154 sipo_bit/wr_addr_reg_2_
*155 sipo_bit/tmp_reg_1_
*156 sipo_bit/tmp_reg_15_
*157 sipo_bit/wr_addr_reg_0_
*158 sipo_bit/tmp_reg_2_
*159 sipo_bit/tmp_reg_9_
*160 sipo_bit/tmp_reg_7_
*161 sipo_bit/tmp_reg_10_
*162 sipo_bit/tmp_reg_0_
*163 sipo_bit/tmp_reg_12_
*164 sipo_bit/wr_1_reg
*165 sipo_bit/tmp_reg_5_
*166 sipo_bit/tmp_reg_8_
*167 sipo_bit/tmp_reg_13_
*168 sipo_bit/count_reg_0_
*169 sipo_bit/tmp_reg_3_
*170 sipo_bit/tmp_reg_6_
*171 sipo_bit/tmp_reg_11_
*172 sipo_bit/rd_reg
*173 sipo_bit/tmp_reg_4_
*174 sipo_bit/tmp_reg_14_
*175 sipo_bit/scan_enable_UPF_LS
*176 sipo_bit/scan_in_UPF_LS
*177 sync_add2mem/dut_sync/BUFT_P_32
*178 ABUF_PR_4042
*179 ABUF_PR_4041
*180 sync_add2mem/dut_sync/ropt_mt_inst_4277
*181 BUFT_P_37
*182 RLB__197
*183 ropt_mt_inst_4278
*184 RLB__198
*185 sipo_bit/rd_addr_reg_1_
*186 sipo_bit/rd_addr_reg_2_
*187 sipo_bit/U14
*188 sipo_bit/U8
*189 sipo_bit/U19
*190 sipo_bit/U9
*191 sipo_bit/U4
*192 sipo_bit/U6
*193 sipo_bit/U10
*194 sipo_bit/U11
*195 cto_buf_drc_2345
*196 sipo_bit/rd_addr_reg_0_
*197 RLB__199
*198 sipo_bit/wr_reg
*199 sipo_bit/U18
*200 sipo_bit/U3
*201 sipo_bit/reset_UPF_LS
*202 sync_add2mem/dut_sync/t_sync_out_reg_3_
*203 sync_add2mem/dut_sync/t_sync_out_reg_2_
*204 sync_add2mem/dut_sync/t_sync_out_reg_1_
*205 sync_add2mem/dut_sync/t_sync_out_reg_0_
*206 sync_add2mem/dut_sync/sync_out_reg_0_
*207 sync_add2mem/dut_sync/sync_out_reg_2_
*208 sync_add2mem/dut_sync/sync_out_reg_1_
*209 sync_add2mem/dut_sync/sync_out_reg_3_
*210 RLB__200
*211 sync_data2mem/dut_sync/t_sync_out_reg_15_
*212 sync_data2mem/dut_sync/t_sync_out_reg_14_
*213 sync_data2mem/dut_sync/t_sync_out_reg_13_
*214 sync_data2mem/dut_sync/t_sync_out_reg_12_
*215 sync_data2mem/dut_sync/t_sync_out_reg_11_
*216 sync_data2mem/dut_sync/t_sync_out_reg_10_
*217 sync_data2mem/dut_sync/t_sync_out_reg_9_
*218 sync_data2mem/dut_sync/t_sync_out_reg_8_
*219 sync_data2mem/dut_sync/t_sync_out_reg_7_
*220 sync_data2mem/dut_sync/t_sync_out_reg_6_
*221 sync_data2mem/dut_sync/t_sync_out_reg_5_
*222 sync_data2mem/dut_sync/t_sync_out_reg_4_
*223 sync_data2mem/dut_sync/t_sync_out_reg_3_
*224 sync_data2mem/dut_sync/t_sync_out_reg_2_
*225 sync_data2mem/dut_sync/t_sync_out_reg_1_
*226 sync_data2mem/dut_sync/t_sync_out_reg_0_
*227 sync_data2mem/dut_sync/sync_out_reg_0_
*228 sync_data2mem/dut_sync/sync_out_reg_1_
*229 sync_data2mem/dut_sync/sync_out_reg_2_
*230 sync_data2mem/dut_sync/sync_out_reg_3_
*231 sync_data2mem/dut_sync/sync_out_reg_4_
*232 sync_data2mem/dut_sync/sync_out_reg_5_
*233 sync_data2mem/dut_sync/sync_out_reg_6_
*234 sync_data2mem/dut_sync/sync_out_reg_7_
*235 sync_data2mem/dut_sync/sync_out_reg_8_
*236 sync_data2mem/dut_sync/sync_out_reg_9_
*237 sync_data2mem/dut_sync/sync_out_reg_10_
*238 sync_data2mem/dut_sync/sync_out_reg_11_
*239 sync_data2mem/dut_sync/sync_out_reg_12_
*240 sync_data2mem/dut_sync/sync_out_reg_13_
*241 sync_data2mem/dut_sync/sync_out_reg_14_
*242 sync_data2mem/dut_sync/sync_out_reg_15_
*243 RLB__201
*244 ropt_mt_inst_4279
*245 sync_datafrommem/dut_sync/t_sync_out_reg_15_
*246 sync_datafrommem/dut_sync/t_sync_out_reg_14_
*247 sync_datafrommem/dut_sync/t_sync_out_reg_13_
*248 sync_datafrommem/dut_sync/t_sync_out_reg_12_
*249 sync_datafrommem/dut_sync/t_sync_out_reg_11_
*250 sync_datafrommem/dut_sync/t_sync_out_reg_10_
*251 sync_datafrommem/dut_sync/t_sync_out_reg_9_
*252 sync_datafrommem/dut_sync/t_sync_out_reg_7_
*253 sync_datafrommem/dut_sync/t_sync_out_reg_6_
*254 sync_datafrommem/dut_sync/t_sync_out_reg_5_
*255 sync_datafrommem/dut_sync/t_sync_out_reg_4_
*256 sync_datafrommem/dut_sync/t_sync_out_reg_3_
*257 sync_datafrommem/dut_sync/t_sync_out_reg_2_
*258 sync_datafrommem/dut_sync/t_sync_out_reg_1_
*259 sync_datafrommem/dut_sync/t_sync_out_reg_0_
*260 sync_datafrommem/dut_sync/sync_out_reg_0_
*261 sync_datafrommem/dut_sync/sync_out_reg_1_
*262 sync_datafrommem/dut_sync/sync_out_reg_2_
*263 sync_datafrommem/dut_sync/sync_out_reg_3_
*264 sync_datafrommem/dut_sync/sync_out_reg_4_
*265 sync_datafrommem/dut_sync/sync_out_reg_5_
*266 sync_datafrommem/dut_sync/sync_out_reg_6_
*267 sync_datafrommem/dut_sync/sync_out_reg_7_
*268 sync_datafrommem/dut_sync/sync_out_reg_11_
*269 sync_datafrommem/dut_sync/sync_out_reg_12_
*270 sync_datafrommem/dut_sync/sync_out_reg_13_
*271 sync_datafrommem/dut_sync/sync_out_reg_14_
*272 sync_datafrommem/dut_sync/sync_out_reg_15_
*273 sync_datafrommem/dut_sync/CLK_UPF_LS
*274 sync_datafrommem/dut_sync/sync_out_reg_8_
*275 sync_datafrommem/dut_sync/t_sync_out_reg_8_
*276 sync_datafrommem/dut_sync/sync_out_reg_10_
*277 sync_datafrommem/dut_sync/sync_out_reg_9_
*278 piso_bit/snps_PD_PISO__ISO_PISO_OUT_SSL_snps_doutISO_PISO_OUT_SSL
*279 piso_bit/load_UPF_LS
*280 piso_bit/din_0__UPF_LS
*281 piso_bit/din_1__UPF_LS
*282 piso_bit/din_2__UPF_LS
*283 piso_bit/din_3__UPF_LS
*284 piso_bit/din_4__UPF_LS
*285 piso_bit/din_5__UPF_LS
*286 piso_bit/din_6__UPF_LS
*287 piso_bit/din_7__UPF_LS
*288 piso_bit/din_8__UPF_LS
*289 piso_bit/din_9__UPF_LS
*290 piso_bit/din_10__UPF_LS
*291 piso_bit/din_11__UPF_LS
*292 piso_bit/din_12__UPF_LS
*293 piso_bit/din_13__UPF_LS
*294 piso_bit/din_14__UPF_LS
*295 piso_bit/din_15__UPF_LS
*296 piso_bit/reset_UPF_LS
*297 piso_bit/U3
*298 piso_bit/U5
*299 piso_bit/U6
*300 piso_bit/U7
*301 piso_bit/U8
*302 piso_bit/U9
*303 piso_bit/U10
*304 piso_bit/U11
*305 piso_bit/U12
*306 piso_bit/U13
*307 piso_bit/U14
*308 piso_bit/U15
*309 piso_bit/U16
*310 piso_bit/U17
*311 piso_bit/U18
*312 piso_bit/U19
*313 piso_bit/U21
*314 piso_bit/temp_reg_14_
*315 piso_bit/temp_reg_2_
*316 piso_bit/temp_reg_6_
*317 piso_bit/temp_reg_4_
*318 piso_bit/temp_reg_13_
*319 piso_bit/temp_reg_10_
*320 piso_bit/temp_reg_9_
*321 piso_bit/temp_reg_5_
*322 piso_bit/temp_reg_1_
*323 piso_bit/temp_reg_7_
*324 piso_bit/temp_reg_8_
*325 piso_bit/temp_reg_11_
*326 piso_bit/temp_reg_15_
*327 piso_bit/temp_reg_12_
*328 piso_bit/dout_reg
*329 piso_bit/temp_reg_0_
*330 piso_bit/temp_reg_3_
*331 piso_bit/scan_enable_UPF_LS
*332 piso_bit/scan_in_UPF_LS
*333 piso_bit/U4
*334 piso_bit/U20
*335 piso_bit/U24
*336 piso_bit/headerfooter_snps_PD_PISO__PD2_SW_snps_HEAD2X16_HVT_R0_C0_0
*337 piso_bit/headerfooter_snps_PD_PISO__PD2_SW_snps_HEAD2X16_HVT_R1_C0_1
*338 piso_bit/headerfooter_snps_PD_PISO__PD2_SW_snps_HEAD2X16_HVT_R3_C0_2
*339 piso_bit/headerfooter_snps_PD_PISO__PD2_SW_snps_HEAD2X16_HVT_R5_C0_3
*340 piso_bit/headerfooter_snps_PD_PISO__PD2_SW_snps_HEAD2X16_HVT_R7_C0_4
*341 piso_bit/headerfooter_snps_PD_PISO__PD2_SW_snps_HEAD2X16_HVT_R9_C0_5
*342 piso_bit/headerfooter_snps_PD_PISO__PD2_SW_snps_HEAD2X16_HVT_R11_C0_6
*343 piso_bit/headerfooter_snps_PD_PISO__PD2_SW_snps_HEAD2X16_HVT_R13_C0_7
*344 piso_bit/headerfooter_snps_PD_PISO__PD2_SW_snps_HEAD2X16_HVT_R15_C0_8
*345 piso_bit/headerfooter_snps_PD_PISO__PD2_SW_snps_HEAD2X16_HVT_R17_C0_9
*346 piso_bit/headerfooter_snps_PD_PISO__PD2_SW_snps_HEAD2X16_HVT_R19_C0_10
*347 piso_bit/headerfooter_snps_PD_PISO__PD2_SW_snps_HEAD2X16_HVT_R21_C0_11
*348 piso_bit/headerfooter_snps_PD_PISO__PD2_SW_snps_HEAD2X16_HVT_R23_C0_12
*349 piso_bit/headerfooter_snps_PD_PISO__PD2_SW_snps_HEAD2X16_HVT_R26_C0_13
*350 piso_bit/headerfooter_snps_PD_PISO__PD2_SW_snps_HEAD2X16_HVT_R28_C0_14
*351 sipo_bit/headerfooter_snps_PD_SIPO__PD1_SW_snps_HEAD2X16_HVT_R0_C0_15
*352 sipo_bit/headerfooter_snps_PD_SIPO__PD1_SW_snps_HEAD2X16_HVT_R1_C0_16
*353 sipo_bit/headerfooter_snps_PD_SIPO__PD1_SW_snps_HEAD2X16_HVT_R3_C0_17
*354 sipo_bit/headerfooter_snps_PD_SIPO__PD1_SW_snps_HEAD2X16_HVT_R5_C0_18
*355 sipo_bit/headerfooter_snps_PD_SIPO__PD1_SW_snps_HEAD2X16_HVT_R7_C0_19
*356 sipo_bit/headerfooter_snps_PD_SIPO__PD1_SW_snps_HEAD2X16_HVT_R9_C0_20
*357 sipo_bit/headerfooter_snps_PD_SIPO__PD1_SW_snps_HEAD2X16_HVT_R11_C0_21
*358 sipo_bit/headerfooter_snps_PD_SIPO__PD1_SW_snps_HEAD2X16_HVT_R13_C0_22
*359 sipo_bit/headerfooter_snps_PD_SIPO__PD1_SW_snps_HEAD2X16_HVT_R15_C0_23
*360 sipo_bit/headerfooter_snps_PD_SIPO__PD1_SW_snps_HEAD2X16_HVT_R17_C0_24
*361 sipo_bit/headerfooter_snps_PD_SIPO__PD1_SW_snps_HEAD2X16_HVT_R19_C0_25
*362 sipo_bit/headerfooter_snps_PD_SIPO__PD1_SW_snps_HEAD2X16_HVT_R21_C0_26
*363 sipo_bit/headerfooter_snps_PD_SIPO__PD1_SW_snps_HEAD2X16_HVT_R23_C0_27
*364 sipo_bit/headerfooter_snps_PD_SIPO__PD1_SW_snps_HEAD2X16_HVT_R26_C0_28
*365 sipo_bit/headerfooter_snps_PD_SIPO__PD1_SW_snps_HEAD2X16_HVT_R28_C0_29
*366 sipo_bit/headerfooter_snps_PD_SIPO__PD1_SW_snps_HEAD2X16_HVT_R30_C0_30
*367 BUFT_RR_3790
*368 optlc_3792
*369 ropt_mt_inst_4280
*370 optlc_3793
*371 optlc_3795
*372 piso_bit/BUFT_P_49
*373 RLB__202
*374 cto_buf_drc_2448
*375 piso_bit/cts_inv_21272330
*376 sipo_bit/cts_inv_21282331
*377 sipo_bit/cts_inv_21292332
*378 cts_inv_21302333
*379 optlc_3796
*380 piso_bit/cts_inv_21312334
*381 AINV_P_60
*382 AINV_P_61
*383 BUFT_P_62
*384 sipo_bit/cts_inv_21322335
*385 cts_inv_21332336
*386 cts_inv_21362339
*387 cts_inv_21372340
*388 cts_inv_21382341
*389 cts_inv_21392342
*390 cts_inv_21402343
*391 BUFT_P_72
*392 optlc_3798
*393 optlc_3799
*394 BUFT_RR_160
*395 sipo_bit/AINV_P_75
*396 sipo_bit/AINV_P_77
*397 sipo_bit/AINV_P_78
*398 ropt_mt_inst_4281
*399 sipo_bit/AINV_P_80
*400 ropt_mt_inst_4282
*401 sync_datafrommem/dut_sync/BUFT_RR_165
*402 sipo_bit/AINV_P_82
*403 sipo_bit/AINV_P_83
*404 sipo_bit/AINV_P_84
*405 sipo_bit/AINV_P_85
*406 sipo_bit/AINV_P_86
*407 sipo_bit/AINV_P_87
*408 sipo_bit/AINV_P_89
*409 sipo_bit/AINV_P_90
*410 sipo_bit/AINV_P_91
*411 sipo_bit/AINV_P_92
*412 sipo_bit/AINV_P_94
*413 ropt_mt_inst_4283
*414 lreset_sync/BUFT_RR_4035
*415 sipo_bit/AINV_P_96
*416 sipo_bit/AINV_P_97
*417 sync_add2mem/dut_sync/BUFT_RR_4036
*418 sync_add2mem/dut_sync/BUFT_RR_4037
*419 sipo_bit/AINV_P_100
*420 sipo_bit/AINV_P_102
*421 sipo_bit/AINV_P_103
*422 sipo_bit/AINV_P_104
*423 sipo_bit/AINV_P_105
*424 sipo_bit/AINV_P_106
*425 ropt_mt_inst_4284
*426 AINV_P_109
*427 AINV_P_110
*428 sync_data2mem/dut_sync/ropt_mt_inst_4285
*429 sync_add2mem/dut_sync/ropt_mt_inst_4286
*430 lreset_sync/BUFT_P_113
*431 sync_data2mem/dut_sync/ropt_mt_inst_4287
*432 hreset_sync/BUFT_P_115
*433 sipo_bit/BUFT_P_116
*434 sync_data2mem/dut_sync/ropt_mt_inst_4288
*435 BUFT_P_120
*436 sync_data2mem/dut_sync/ropt_mt_inst_4289
*437 sync_data2mem/dut_sync/ropt_mt_inst_4290
*438 sync_data2mem/dut_sync/ropt_mt_inst_4291
*439 ropt_mt_inst_4292
*440 AINV_P_130
*441 AINV_P_131
*442 BUFT_P_133
*443 AINV_P_135
*444 AINV_P_138
*445 BUFT_P_139
*446 sipo_bit/FTB_1__140
*447 \*Logic0\*
*448 aps_rename_3_
*449 net_net_201
*450 APSDRC_net_102
*451 ropt_net_208
*452 net_aps_161
*453 aps_rename_352_
*454 APSDRC_net_99
*455 APSDRC_net_104
*456 APSDRC_net_108
*457 n4
*458 wr
*459 n_6_net_
*460 load_data_from_memory
*461 temp_0
*462 temp_1
*463 temp_2
*464 net73
*465 net74
*466 net75
*467 net76
*468 net77
*469 net78
*470 net79
*471 net80
*472 net81
*473 net82
*474 net83
*475 net84
*476 net85
*477 net86
*478 net87
*479 net88
*480 net89
*481 net90
*482 net91
*483 net92
*484 net93
*485 n2
*486 n21
*487 n23
*488 net_aps_162
*489 net69
*490 net70
*491 net94
*492 n39
*493 n40
*494 power_ack[1]
*495 power_ack[0]
*496 t_pout2mem[15]
*497 t_pout2mem[14]
*498 t_pout2mem[13]
*499 t_pout2mem[12]
*500 t_pout2mem[11]
*501 t_pout2mem[10]
*502 t_pout2mem[9]
*503 t_pout2mem[8]
*504 t_pout2mem[7]
*505 t_pout2mem[6]
*506 t_pout2mem[5]
*507 t_pout2mem[4]
*508 t_pout2mem[3]
*509 t_pout2mem[2]
*510 t_pout2mem[1]
*511 t_pout2mem[0]
*512 net_aps_163
*513 t_pout_addr2mem[2]
*514 t_pout_addr2mem[1]
*515 t_pout_addr2mem[0]
*516 pout_addr2mem[3]
*517 pout_addr2mem[2]
*518 pout_addr2mem[1]
*519 pout_addr2mem[0]
*520 pout2mem[15]
*521 pout2mem[14]
*522 pout2mem[13]
*523 pout2mem[12]
*524 pout2mem[11]
*525 pout2mem[10]
*526 pout2mem[9]
*527 sync_add2mem/dut_sync/dummy_net_202
*528 pout2mem[7]
*529 pout2mem[6]
*530 pout2mem[5]
*531 pout2mem[4]
*532 pout2mem[3]
*533 pout2mem[2]
*534 pout2mem[1]
*535 pout2mem[0]
*536 t_din2piso[15]
*537 t_din2piso[14]
*538 t_din2piso[13]
*539 t_din2piso[12]
*540 t_din2piso[11]
*541 t_din2piso[10]
*542 t_din2piso[9]
*543 t_din2piso[8]
*544 t_din2piso[7]
*545 t_din2piso[6]
*546 t_din2piso[5]
*547 t_din2piso[4]
*548 t_din2piso[3]
*549 t_din2piso[2]
*550 t_din2piso[1]
*551 t_din2piso[0]
*552 din2piso[15]
*553 din2piso[14]
*554 din2piso[13]
*555 din2piso[12]
*556 din2piso[11]
*557 din2piso[10]
*558 din2piso[9]
*559 din2piso[8]
*560 din2piso[7]
*561 din2piso[6]
*562 din2piso[5]
*563 din2piso[4]
*564 din2piso[3]
*565 din2piso[2]
*566 din2piso[1]
*567 din2piso[0]
*568 lreset_sync/\*Logic1\*
*569 lreset_sync/aps_rename_344_
*570 net_aps_164
*571 lreset_sync/t_reset_sync
*572 lreset_sync/n3
*573 hreset_sync/\*Logic1\*
*574 hreset_sync/aps_rename_346_
*575 hreset_sync/scan_out_gOb1
*576 sipo_bit/n39
*577 sipo_bit/twr_tmp
*578 sipo_bit/rd
*579 sipo_bit/wr_0
*580 sipo_bit/wr_1
*581 sipo_bit/wr_tmp
*582 sipo_bit/n13
*583 sipo_bit/n17
*584 sipo_bit/n21
*585 sipo_bit/n25
*586 sipo_bit/n31
*587 sipo_bit/n34
*588 sipo_bit/n37
*589 sipo_bit/n40
*590 sipo_bit/n43
*591 sipo_bit/n46
*592 sipo_bit/n49
*593 sipo_bit/n86
*594 sipo_bit/n89
*595 sipo_bit/n92
*596 sipo_bit/n95
*597 sipo_bit/n98
*598 sipo_bit/n101
*599 sipo_bit/n104
*600 sipo_bit/n107
*601 sipo_bit/n110
*602 sipo_bit/n113
*603 sipo_bit/n116
*604 sipo_bit/n119
*605 sipo_bit/n122
*606 sipo_bit/n125
*607 sipo_bit/n128
*608 sipo_bit/n131
*609 sipo_bit/n134
*610 sipo_bit/n137
*611 sipo_bit/n140
*612 sipo_bit/n143
*613 sipo_bit/n4
*614 sipo_bit/n5
*615 sipo_bit/n6
*616 sipo_bit/n7
*617 sipo_bit/n9
*618 sipo_bit/n11
*619 sipo_bit/n12
*620 sipo_bit/n14
*621 sipo_bit/n15
*622 sipo_bit/n18
*623 sipo_bit/n20
*624 sipo_bit/n22
*625 sipo_bit/n23
*626 sipo_bit/n24
*627 sipo_bit/n26
*628 sipo_bit/n27
*629 sipo_bit/n28
*630 sipo_bit/n29
*631 sipo_bit/n30
*632 sipo_bit/n32
*633 sipo_bit/n53
*634 sipo_bit/n55
*635 sipo_bit/n58
*636 sipo_bit/n19
*637 sipo_bit/n60
*638 sipo_bit/n61
*639 sipo_bit/n62
*640 sipo_bit/n63
*641 sipo_bit/n16
*642 net_aps_165
*643 net_aps_166
*644 APSDRC_net_6
*645 lreset_sync/aps_rename_1_
*646 net_aps_167
*647 net_aps_168
*648 sipo_bit/n51
*649 sipo_bit/n52
*650 sipo_bit/n54
*651 sipo_bit/n59
*652 sipo_bit/n64
*653 sipo_bit/n65
*654 sipo_bit/tpout[15]
*655 sipo_bit/tpout[14]
*656 sipo_bit/tpout[13]
*657 sipo_bit/tpout[12]
*658 sipo_bit/tpout[11]
*659 sipo_bit/tpout[10]
*660 sipo_bit/tpout[9]
*661 sipo_bit/tpout[8]
*662 sipo_bit/tpout[7]
*663 sipo_bit/tpout[6]
*664 sipo_bit/tpout[5]
*665 sipo_bit/tpout[4]
*666 sipo_bit/tpout[3]
*667 sipo_bit/tpout[2]
*668 sipo_bit/tpout[1]
*669 sipo_bit/tpout[0]
*670 sipo_bit/count[3]
*671 sipo_bit/count[2]
*672 sipo_bit/count[1]
*673 sipo_bit/count[0]
*674 sipo_bit/taddr[3]
*675 sipo_bit/taddr[2]
*676 sipo_bit/taddr[1]
*677 sipo_bit/taddr[0]
*678 sipo_bit/rd_addr[3]
*679 sipo_bit/rd_addr[2]
*680 sipo_bit/rd_addr[1]
*681 sipo_bit/rd_addr[0]
*682 sipo_bit/wr_addr[3]
*683 sipo_bit/wr_addr[2]
*684 sipo_bit/wr_addr[1]
*685 sipo_bit/wr_addr[0]
*686 pout2mem[8]
*687 sync_add2mem/dut_sync/_gOb2_dftopt5
*688 ropt_net_204
*689 sync_add2mem/dut_sync/t_sync_out[3]
*690 sync_add2mem/dut_sync/t_sync_out[2]
*691 sync_add2mem/dut_sync/t_sync_out[1]
*692 sync_add2mem/dut_sync/t_sync_out[0]
*693 ropt_net_205
*694 ropt_net_206
*695 sync_data2mem/dut_sync/t_sync_out[15]
*696 sync_data2mem/dut_sync/t_sync_out[14]
*697 sync_data2mem/dut_sync/t_sync_out[13]
*698 sync_data2mem/dut_sync/t_sync_out[12]
*699 sync_data2mem/dut_sync/t_sync_out[11]
*700 sync_data2mem/dut_sync/t_sync_out[10]
*701 sync_data2mem/dut_sync/t_sync_out[9]
*702 sync_data2mem/dut_sync/t_sync_out[8]
*703 sync_data2mem/dut_sync/t_sync_out[7]
*704 sync_data2mem/dut_sync/t_sync_out[6]
*705 sync_data2mem/dut_sync/t_sync_out[5]
*706 sync_data2mem/dut_sync/t_sync_out[4]
*707 sync_data2mem/dut_sync/t_sync_out[3]
*708 sync_data2mem/dut_sync/t_sync_out[2]
*709 sync_data2mem/dut_sync/t_sync_out[1]
*710 sync_data2mem/dut_sync/t_sync_out[0]
*711 sync_datafrommem/dut_sync/n4
*712 sync_datafrommem/dut_sync/t_sync_out[15]
*713 sync_datafrommem/dut_sync/t_sync_out[14]
*714 sync_datafrommem/dut_sync/t_sync_out[13]
*715 sync_datafrommem/dut_sync/t_sync_out[12]
*716 sync_datafrommem/dut_sync/t_sync_out[11]
*717 sync_datafrommem/dut_sync/t_sync_out[10]
*718 sync_datafrommem/dut_sync/t_sync_out[9]
*719 sync_datafrommem/dut_sync/t_sync_out[8]
*720 sync_datafrommem/dut_sync/t_sync_out[7]
*721 sync_datafrommem/dut_sync/t_sync_out[6]
*722 sync_datafrommem/dut_sync/t_sync_out[5]
*723 sync_datafrommem/dut_sync/t_sync_out[4]
*724 sync_datafrommem/dut_sync/t_sync_out[3]
*725 sync_datafrommem/dut_sync/t_sync_out[2]
*726 sync_datafrommem/dut_sync/t_sync_out[1]
*727 sync_datafrommem/dut_sync/t_sync_out[0]
*728 piso_bit/aps_rename_351_
*729 piso_bit/n40
*730 piso_bit/n41
*731 piso_bit/n1
*732 piso_bit/temp_15_
*733 piso_bit/temp_14_
*734 piso_bit/temp_13_
*735 piso_bit/temp_12_
*736 piso_bit/temp_11_
*737 piso_bit/temp_10_
*738 piso_bit/temp_9_
*739 piso_bit/temp_8_
*740 piso_bit/temp_7_
*741 piso_bit/temp_5_
*742 piso_bit/temp_4_
*743 piso_bit/temp_3_
*744 piso_bit/temp_2_
*745 piso_bit/temp_1_
*746 piso_bit/temp_0_
*747 piso_bit/N4
*748 piso_bit/N5
*749 piso_bit/N6
*750 piso_bit/N7
*751 piso_bit/N8
*752 piso_bit/N9
*753 piso_bit/N10
*754 piso_bit/N11
*755 piso_bit/N12
*756 piso_bit/N13
*757 piso_bit/N14
*758 piso_bit/N15
*759 piso_bit/N16
*760 piso_bit/N17
*761 piso_bit/N18
*762 piso_bit/N19
*763 piso_bit/n5
*764 piso_bit/n45
*765 piso_bit/n3
*766 piso_bit/n2
*767 piso_bit/n4
*768 piso_bit/n6
*769 piso_bit/n[23]
*770 piso_bit/n[24]
*771 piso_bit/n[25]
*772 piso_bit/n[26]
*773 piso_bit/n[27]
*774 piso_bit/n[28]
*775 piso_bit/n[29]
*776 piso_bit/n[30]
*777 piso_bit/n[31]
*778 piso_bit/n[32]
*779 piso_bit/n[33]
*780 piso_bit/n[34]
*781 piso_bit/n[35]
*782 piso_bit/n[36]
*783 piso_bit/n[38]
*784 piso_bit/n[39]
*785 piso_bit/PG_ack_signals[1]0
*786 piso_bit/PG_ack_signals[1]1
*787 piso_bit/PG_ack_signals[1]2
*788 piso_bit/PG_ack_signals[1]3
*789 piso_bit/PG_ack_signals[1]4
*790 piso_bit/PG_ack_signals[1]5
*791 piso_bit/PG_ack_signals[1]6
*792 piso_bit/PG_ack_signals[1]7
*793 piso_bit/PG_ack_signals[1]8
*794 piso_bit/PG_ack_signals[1]9
*795 piso_bit/PG_ack_signals[1]10
*796 piso_bit/PG_ack_signals[1]11
*797 piso_bit/PG_ack_signals[1]12
*798 piso_bit/PG_ack_signals[1]13
*799 sipo_bit/PG_ack_signals[0]0
*800 sipo_bit/PG_ack_signals[0]1
*801 sipo_bit/PG_ack_signals[0]2
*802 sipo_bit/PG_ack_signals[0]3
*803 sipo_bit/PG_ack_signals[0]4
*804 sipo_bit/PG_ack_signals[0]5
*805 sipo_bit/PG_ack_signals[0]6
*806 sipo_bit/PG_ack_signals[0]7
*807 sipo_bit/PG_ack_signals[0]8
*808 sipo_bit/PG_ack_signals[0]9
*809 sipo_bit/PG_ack_signals[0]10
*810 sipo_bit/PG_ack_signals[0]11
*811 sipo_bit/PG_ack_signals[0]12
*812 sipo_bit/PG_ack_signals[0]13
*813 sipo_bit/PG_ack_signals[0]14
*814 piso_bit/ctsbuf_net_5174
*815 sipo_bit/ctsbuf_net_6175
*816 sipo_bit/ctsbuf_net_7176
*817 ctsbuf_net_8177
*818 piso_bit/ctsbuf_net_9178
*819 sipo_bit/ctsbuf_net_10179
*820 ctsbuf_net_11180
*821 ctsbuf_net_12181
*822 ctsbuf_net_13182
*823 ctsbuf_net_14183
*824 ctsbuf_net_15184
*825 ctsbuf_net_16185
*826 cts0
*827 cts1
*828 dftopt3
*829 sync_data2mem/dut_sync/ropt_net_211
*830 APSDRC_net_29
*831 APSDRC_net_30
*832 APSDRC_net_31
*833 optlc_net_187
*834 APSDRC_net_41
*835 sync_add2mem/dut_sync/ropt_net_212
*836 sipo_bit/APSDRC_net_44
*837 dftopt6
*838 sipo_bit/APSDRC_net_46
*839 sipo_bit/APSDRC_net_47
*840 sync_data2mem/dut_sync/ropt_net_213
*841 sipo_bit/APSDRC_net_49
*842 dftopt1
*843 sipo_bit/APSDRC_net_51
*844 sipo_bit/APSDRC_net_52
*845 sipo_bit/APSDRC_net_53
*846 sipo_bit/APSDRC_net_54
*847 sipo_bit/APSDRC_net_55
*848 sipo_bit/APSDRC_net_56
*849 sync_data2mem/dut_sync/ropt_net_214
*850 sipo_bit/APSDRC_net_58
*851 sipo_bit/APSDRC_net_59
*852 sipo_bit/APSDRC_net_60
*853 sipo_bit/APSDRC_net_61
*854 sync_data2mem/dut_sync/ropt_net_215
*855 sipo_bit/APSDRC_net_63
*856 sync_data2mem/dut_sync/ropt_net_216
*857 sipo_bit/APSDRC_net_65
*858 sipo_bit/APSDRC_net_66
*859 sync_data2mem/dut_sync/ropt_net_217
*860 sipo_bit/APSDRC_net_69
*861 optlc_net_188
*862 sipo_bit/APSDRC_net_71
*863 sipo_bit/APSDRC_net_72
*864 sipo_bit/APSDRC_net_73
*865 sipo_bit/APSDRC_net_74
*866 sipo_bit/APSDRC_net_75
*867 optlc_net_189
*868 optlc_net_190
*869 APSDRC_net_78
*870 APSDRC_net_79
*871 optlc_net_191
*872 n22
*873 optlc_net_192
*874 sipo_bit/APSDRC_net_85
*875 BUF_net_126
*876 ropt_net_218
*877 APSDRC_net_100
*878 sync_add2mem/dut_sync/aps_rename_2_
*879 ropt_net_210
*880 ropt_net_207
*881 sync_datafrommem/dut_sync/BUF_net_131
*882 APSDRC_net_107
*883 ropt_net_209
*884 net_net_142

*PORTS
*1 I *C 196.778 67.412
*2 I *C 197.082 67.412
*3 I *C 197.082 67.412
*4 I *C 14.319 67.412
*5 I *C 197.386 67.412
*6 I *C 156.408 67.412
*7 I *C 99.498 67.412
*8 I *C 99.498 67.412
*9 I *C 1.793 67.412
*10 I *C 1.793 67.412
*11 I *C 198.222 67.412
*12 I *C 198.526 67.412
*13 I *C 184.984 67.412
*14 I *C 54.917 67.412
*15 I *C 20.931 67.412
*16 I *C 144.476 67.412
*17 I *C 100.016 67.412
*18 O *C 192.750 67.412
*19 O *C 112.564 67.412
*20 O *C 104.272 67.412
*21 O *C 2.249 67.412
*22 O *C 153.672 67.412
*23 O *C 173.736 67.412
*24 O *C 95.380 67.412
*25 O *C 67.108 67.412
*26 I *C 95.000 33.440
*27 I *C 105.000 33.440
*28 I *C 100.000 33.440
*29 O *C 100.000 34.000
*30 O *C 100.000 34.000

*D_NET *1 3.180001 //LENGTH 34.201 DR

*CONN
*P *1 I *L 17.670 *C 197.448 66.852
*I *195:A I *L 1.447 *C 170.502 62.624
*N *1:2 *C 170.405 62.624
*N *1:3 *C 170.392 62.660
*N *1:4 *C 170.392 63.067
*N *1:5 *C 170.406 63.080
*N *1:6 *C 173.143 63.080
*N *1:7 *C 182.856 63.080
*N *1:8 *C 182.856 63.080
*N *1:9 *C 182.856 63.992
*N *1:10 *C 182.856 63.992
*N *1:11 *C 195.928 63.992
*N *1:12 *C 195.928 63.992
*N *1:13 *C 197.448 66.636
*N *1:14 *C 197.448 66.742
*N *1:15 *C 197.435 66.728
*N *1:16 *C 195.942 66.728
*N *1:17 *C 195.928 66.742
*N *1:18 *C 195.928 67.931
*N *1:19 *C 195.928 67.944
*N *1:20 *C 196.068 67.944
*N *1:21 *C 196.080 67.932

*CAP
0 *1 0.0172877
1 *195:A 0.02021836
2 *1:2 0.01814296
3 *1:3 0.02434533
4 *1:4 0.0240485
5 *1:5 0.03832763
6 *1:6 0.2946132
7 *1:7 0.2515417
8 *1:8 0.0440088
9 *1:9 0.0440088
10 *1:10 0.4844167
11 *1:11 0.4844167
12 *1:12 0.1266251
13 *1:13 0.009960381
14 *1:14 0.01643054
15 *1:15 0.0693028
16 *1:16 0.06930335
17 *1:17 0.1752429
18 *1:18 0.04624611
19 *1:19 0.007664422
20 *1:20 0.007663875
21 *1:21 0.006073108
22 *1:7 *485:15 0.0141854
23 *1:7 *485:14 0.03910611
24 *1:5 *485:11 0.02180703
25 *1:6 *485:11 0.03910611
26 *1:6 *485:14 0.03599243
27 *1:11 *645:7 0.06962346
28 *1:10 *645:6 0.06962346
29 *1:7 *823:16 0.05675964
30 *1:7 *823:15 0.1854037
31 *1:5 *823:14 0.06317041
32 *1:6 *823:15 0.11993
33 *1:6 *823:14 0.1854037

*RES
0 *1 *1:21 0.2908334
1 *1:21 *1:20 0.5
2 *1:20 *1:19 0.2325
3 *1:19 *1:18 0.5
4 *1:18 *1:17 2.123214
5 *1:11 *1:10 11.675
6 *1:12 *1:11 0.5
7 *1:10 *1:9 0.5
8 *1:9 *1:8 0.8214286
9 *1:7 *1:6 8.672322
10 *1:8 *1:7 0.5
11 *1:4 *1:3 0.7258929
12 *1:5 *1:4 0.5
13 *1:2 *195:A 0.1616667
14 *1:3 *1:2 1
15 *1:16 *1:15 2.683036
16 *1:17 *1:16 0.5
17 *1:17 *1:12 2.454911
18 *1:14 *1:13 0.1758333
19 *1:15 *1:14 0.5
20 *1:6 *1:5 4.888393

*END

*D_NET *9 2.457385 //LENGTH 33.144 DR

*CONN
*P *9 I *L 17.670 *C 2.218 67.972
*I *62:A I *L 1.432 *C 12.008 62.491
*I *383:A I *L 0.614 *C 21.736 62.812
*N *9:3 *C 2.206 67.944
*N *9:4 *C 2.218 67.944
*N *9:5 *C 2.171 67.944
*N *9:6 *C 1.406 67.944
*N *9:7 *C 1.368 67.908
*N *9:8 *C 1.368 67.898
*N *9:9 *C 20.900 62.594
*N *9:10 *C 21.736 62.594
*N *9:11 *C 21.736 62.764
*N *9:12 *C 21.723 62.776
*N *9:13 *C 20.914 62.776
*N *9:14 *C 20.900 62.764
*N *9:15 *C 20.888 62.776
*N *9:16 *C 20.853 62.776
*N *9:17 *C 20.710 62.776
*N *9:18 *C 20.672 62.812
*N *9:19 *C 20.672 63.067
*N *9:20 *C 20.659 63.080
*N *9:21 *C 12.008 62.508
*N *9:22 *C 12.008 63.979
*N *9:23 *C 11.995 63.992
*N *9:24 *C 9.438 63.992
*N *9:25 *C 9.424 63.979
*N *9:26 *C 9.424 63.094
*N *9:27 *C 9.424 63.080
*N *9:28 *C 1.382 63.080
*N *9:29 *C 1.368 63.094

*CAP
0 *9 0.2127353
1 *62:A 0.001
2 *383:A 0.001
3 *9:3 0.003067844
4 *9:4 0.01230102
5 *9:5 0.04817086
6 *9:6 0.04095221
7 *9:7 0.003008706
8 *9:8 0.04730194
9 *9:9 0.0136179
10 *9:10 0.01251314
11 *9:11 0.006336028
12 *9:12 0.03328274
13 *9:13 0.03328274
14 *9:14 0.009170284
15 *9:15 0.003241376
16 *9:16 0.01753239
17 *9:17 0.01014022
18 *9:18 0.01470472
19 *9:19 0.0144079
20 *9:20 0.3240383
21 *9:21 0.06587248
22 *9:22 0.06730516
23 *9:23 0.07677916
24 *9:24 0.07677916
25 *9:25 0.040038
26 *9:26 0.040038
27 *9:27 0.5914072
28 *9:28 0.2649967
29 *9:29 0.1537688
30 *9:27 *456:5 0.08550562
31 *9:20 *456:6 0.08550562
32 *9:13 *456:5 0.006709046
33 *9:12 *456:6 0.006709046
34 *9:24 *493:6 0.01708262
35 *9:23 *493:7 0.01708262

*RES
0 *9 *9:29 6.711607
1 *9 *9:8 1.246429
2 *9 *9:4 0.04666667
3 *9:29 *9:28 0.5
4 *9:28 *9:27 14.36161
5 *9:26 *9:25 1.61875
6 *9:27 *9:26 0.5
7 *9:27 *9:20 20.06161
8 *9:25 *9:24 0.5
9 *9:24 *9:23 4.566072
10 *9:22 *9:21 2.664286
11 *9:23 *9:22 0.5
12 *9:21 *62:A 1
13 *9:6 *9:5 1.53
14 *9:7 *9:6 1
15 *9:4 *9:3 1
16 *9:19 *9:18 0.4544643
17 *9:20 *9:19 0.5
18 *9:17 *9:16 0.286
19 *9:18 *9:17 1
20 *9:15 *9:14 1
21 *9:14 *9:13 0.5
22 *9:14 *9:9 0.2825
23 *9:13 *9:12 1.444643
24 *9:11 *383:A 1
25 *9:11 *9:10 0.2825
26 *9:12 *9:11 0.5
27 *9:16 *9:15 0.07000001
28 *9:8 *9:7 0.01666667

*END

*D_NET *10 0.9883367 //LENGTH 10.859 DR

*CONN
*P *10 I *L 17.670 *C 2.522 67.958
*I *61:A I *L 1.555 *C 5.724 62.451
*N *10:2 *C 2.584 66.622
*N *10:3 *C 2.584 67.944
*N *10:4 *C 2.622 62.472
*N *10:5 *C 2.584 62.508
*N *10:6 *C 2.584 66.530
*N *10:7 *C 2.584 66.612
*N *10:8 *C 2.572 66.576
*N *10:9 *C 2.537 66.576
*N *10:10 *C 1.102 66.576
*N *10:11 *C 1.064 66.612

*CAP
0 *10 0.01972997
1 *61:A 0.1576151
2 *10:2 0.07099739
3 *10:3 0.07095224
4 *10:4 0.1555397
5 *10:5 0.1689782
6 *10:6 0.1746192
7 *10:7 0.00505572
8 *10:8 0.002803311
9 *10:9 0.07743288
10 *10:10 0.07047877
11 *10:11 0.01413417

*RES
0 *10 *10:11 0.4285714
1 *10 *10:3 0.1107143
2 *10:4 *61:A 6.205
3 *10:5 *10:4 1
4 *10:10 *10:9 2.87
5 *10:11 *10:10 1