*SPEF "IEEE 1481-1999"
*DESIGN "bit_coin"
*DATE "Tue Aug 22 02:10:10 2017"
*VENDOR "SYNOPSYS INC"
*PROGRAM "Synopsys Design Compiler cmos"
*VERSION "M-2016.12-SP2"
*DESIGN_FLOW "SYNTHESIS"
*DIVIDER /
*DELIMITER :
*BUS_DELIMITER []
*T_UNIT 1.0 NS
*C_UNIT 0.0010 PF
*R_UNIT 1000.0 KOHM
*L_UNIT 1.0 HENRY

*PORTS

hclk I *L 0.000e+00 *S 0.000e+00 0.000e+00 
lclk I *L 0.000e+00 *S 0.000e+00 0.000e+00 
reset I *L 0.000e+00 *S 0.000e+00 0.000e+00 
secure_data_in\[31\] I *L 0.000e+00 *S 0.000e+00 0.000e+00 
secure_data_in\[30\] I *L 0.000e+00 *S 0.000e+00 0.000e+00 
secure_data_in\[29\] I *L 0.000e+00 *S 0.000e+00 0.000e+00 
secure_data_in\[28\] I *L 0.000e+00 *S 0.000e+00 0.000e+00 
secure_data_in\[27\] I *L 0.000e+00 *S 0.000e+00 0.000e+00 
secure_data_in\[26\] I *L 0.000e+00 *S 0.000e+00 0.000e+00 
secure_data_in\[25\] I *L 0.000e+00 *S 0.000e+00 0.000e+00 
secure_data_in\[24\] I *L 0.000e+00 *S 0.000e+00 0.000e+00 
secure_data_in\[23\] I *L 0.000e+00 *S 0.000e+00 0.000e+00 
secure_data_in\[22\] I *L 0.000e+00 *S 0.000e+00 0.000e+00 
secure_data_in\[21\] I *L 0.000e+00 *S 0.000e+00 0.000e+00 
secure_data_in\[20\] I *L 0.000e+00 *S 0.000e+00 0.000e+00 
secure_data_in\[19\] I *L 0.000e+00 *S 0.000e+00 0.000e+00 
secure_data_in\[18\] I *L 0.000e+00 *S 0.000e+00 0.000e+00 
secure_data_in\[17\] I *L 0.000e+00 *S 0.000e+00 0.000e+00 
secure_data_in\[16\] I *L 0.000e+00 *S 0.000e+00 0.000e+00 
secure_data_in\[15\] I *L 0.000e+00 *S 0.000e+00 0.000e+00 
secure_data_in\[14\] I *L 0.000e+00 *S 0.000e+00 0.000e+00 
secure_data_in\[13\] I *L 0.000e+00 *S 0.000e+00 0.000e+00 
secure_data_in\[12\] I *L 0.000e+00 *S 0.000e+00 0.000e+00 
secure_data_in\[11\] I *L 0.000e+00 *S 0.000e+00 0.000e+00 
secure_data_in\[10\] I *L 0.000e+00 *S 0.000e+00 0.000e+00 
secure_data_in\[9\] I *L 0.000e+00 *S 0.000e+00 0.000e+00 
secure_data_in\[8\] I *L 0.000e+00 *S 0.000e+00 0.000e+00 
secure_data_in\[7\] I *L 0.000e+00 *S 0.000e+00 0.000e+00 
secure_data_in\[6\] I *L 0.000e+00 *S 0.000e+00 0.000e+00 
secure_data_in\[5\] I *L 0.000e+00 *S 0.000e+00 0.000e+00 
secure_data_in\[4\] I *L 0.000e+00 *S 0.000e+00 0.000e+00 
secure_data_in\[3\] I *L 0.000e+00 *S 0.000e+00 0.000e+00 
secure_data_in\[2\] I *L 0.000e+00 *S 0.000e+00 0.000e+00 
secure_data_in\[1\] I *L 0.000e+00 *S 0.000e+00 0.000e+00 
secure_data_in\[0\] I *L 0.000e+00 *S 0.000e+00 0.000e+00 
hash_key\[31\] I *L 0.000e+00 *S 0.000e+00 0.000e+00 
hash_key\[30\] I *L 0.000e+00 *S 0.000e+00 0.000e+00 
hash_key\[29\] I *L 0.000e+00 *S 0.000e+00 0.000e+00 
hash_key\[28\] I *L 0.000e+00 *S 0.000e+00 0.000e+00 
hash_key\[27\] I *L 0.000e+00 *S 0.000e+00 0.000e+00 
hash_key\[26\] I *L 0.000e+00 *S 0.000e+00 0.000e+00 
hash_key\[25\] I *L 0.000e+00 *S 0.000e+00 0.000e+00 
hash_key\[24\] I *L 0.000e+00 *S 0.000e+00 0.000e+00 
hash_key\[23\] I *L 0.000e+00 *S 0.000e+00 0.000e+00 
hash_key\[22\] I *L 0.000e+00 *S 0.000e+00 0.000e+00 
hash_key\[21\] I *L 0.000e+00 *S 0.000e+00 0.000e+00 
hash_key\[20\] I *L 0.000e+00 *S 0.000e+00 0.000e+00 
hash_key\[19\] I *L 0.000e+00 *S 0.000e+00 0.000e+00 
hash_key\[18\] I *L 0.000e+00 *S 0.000e+00 0.000e+00 
hash_key\[17\] I *L 0.000e+00 *S 0.000e+00 0.000e+00 
hash_key\[16\] I *L 0.000e+00 *S 0.000e+00 0.000e+00 
hash_key\[15\] I *L 0.000e+00 *S 0.000e+00 0.000e+00 
hash_key\[14\] I *L 0.000e+00 *S 0.000e+00 0.000e+00 
hash_key\[13\] I *L 0.000e+00 *S 0.000e+00 0.000e+00 
hash_key\[12\] I *L 0.000e+00 *S 0.000e+00 0.000e+00 
hash_key\[11\] I *L 0.000e+00 *S 0.000e+00 0.000e+00 
hash_key\[10\] I *L 0.000e+00 *S 0.000e+00 0.000e+00 
hash_key\[9\] I *L 0.000e+00 *S 0.000e+00 0.000e+00 
hash_key\[8\] I *L 0.000e+00 *S 0.000e+00 0.000e+00 
hash_key\[7\] I *L 0.000e+00 *S 0.000e+00 0.000e+00 
hash_key\[6\] I *L 0.000e+00 *S 0.000e+00 0.000e+00 
hash_key\[5\] I *L 0.000e+00 *S 0.000e+00 0.000e+00 
hash_key\[4\] I *L 0.000e+00 *S 0.000e+00 0.000e+00 
hash_key\[3\] I *L 0.000e+00 *S 0.000e+00 0.000e+00 
hash_key\[2\] I *L 0.000e+00 *S 0.000e+00 0.000e+00 
hash_key\[1\] I *L 0.000e+00 *S 0.000e+00 0.000e+00 
hash_key\[0\] I *L 0.000e+00 *S 0.000e+00 0.000e+00 
data_valid I *L 0.000e+00 *S 0.000e+00 0.000e+00 
sleep_signals\[17\] I *L 0.000e+00 *S 0.000e+00 0.000e+00 
sleep_signals\[16\] I *L 0.000e+00 *S 0.000e+00 0.000e+00 
sleep_signals\[15\] I *L 0.000e+00 *S 0.000e+00 0.000e+00 
sleep_signals\[14\] I *L 0.000e+00 *S 0.000e+00 0.000e+00 
sleep_signals\[13\] I *L 0.000e+00 *S 0.000e+00 0.000e+00 
sleep_signals\[12\] I *L 0.000e+00 *S 0.000e+00 0.000e+00 
sleep_signals\[11\] I *L 0.000e+00 *S 0.000e+00 0.000e+00 
sleep_signals\[10\] I *L 0.000e+00 *S 0.000e+00 0.000e+00 
sleep_signals\[9\] I *L 0.000e+00 *S 0.000e+00 0.000e+00 
sleep_signals\[8\] I *L 0.000e+00 *S 0.000e+00 0.000e+00 
sleep_signals\[7\] I *L 0.000e+00 *S 0.000e+00 0.000e+00 
sleep_signals\[6\] I *L 0.000e+00 *S 0.000e+00 0.000e+00 
sleep_signals\[5\] I *L 0.000e+00 *S 0.000e+00 0.000e+00 
sleep_signals\[4\] I *L 0.000e+00 *S 0.000e+00 0.000e+00 
sleep_signals\[3\] I *L 0.000e+00 *S 0.000e+00 0.000e+00 
sleep_signals\[2\] I *L 0.000e+00 *S 0.000e+00 0.000e+00 
sleep_signals\[1\] I *L 0.000e+00 *S 0.000e+00 0.000e+00 
sleep_signals\[0\] I *L 0.000e+00 *S 0.000e+00 0.000e+00 
isolation_signals\[1\] I *L 0.000e+00 *S 0.000e+00 0.000e+00 
isolation_signals\[0\] I *L 0.000e+00 *S 0.000e+00 0.000e+00 
retention_signals\[1\] I *L 0.000e+00 *S 0.000e+00 0.000e+00 
retention_signals\[0\] I *L 0.000e+00 *S 0.000e+00 0.000e+00 
test_mode I *L 0.000e+00 *S 0.000e+00 0.000e+00 
scan_enable I *L 0.000e+00 *S 0.000e+00 0.000e+00 
sipo_scan_in I *L 0.000e+00 *S 0.000e+00 0.000e+00 
piso_scan_in I *L 0.000e+00 *S 0.000e+00 0.000e+00 
hv_scan_in I *L 0.000e+00 *S 0.000e+00 0.000e+00 
lv_scan_in I *L 0.000e+00 *S 0.000e+00 0.000e+00 
sipo_scan_out O *L 0.000e+00 *S 1.003e-01 1.231e-01 
piso_scan_out O *L 0.000e+00 *S 5.415e-02 6.191e-02 
hv_scan_out O *L 0.000e+00 *S 5.547e-02 6.347e-02 
lv_scan_out O *L 0.000e+00 *S 6.169e-02 6.797e-02 
secure_data_out\[31\] O *L 0.000e+00 *S 4.272e-02 4.772e-02 
secure_data_out\[30\] O *L 0.000e+00 *S 3.972e-02 4.420e-02 
secure_data_out\[29\] O *L 0.000e+00 *S 4.950e-02 5.600e-02 
secure_data_out\[28\] O *L 0.000e+00 *S 5.545e-02 6.319e-02 
secure_data_out\[27\] O *L 0.000e+00 *S 3.791e-02 4.206e-02 
secure_data_out\[26\] O *L 0.000e+00 *S 4.293e-02 4.796e-02 
secure_data_out\[25\] O *L 0.000e+00 *S 4.555e-02 4.991e-02 
secure_data_out\[24\] O *L 0.000e+00 *S 3.297e-02 3.582e-02 
secure_data_out\[23\] O *L 0.000e+00 *S 2.493e-02 2.726e-02 
secure_data_out\[22\] O *L 0.000e+00 *S 3.841e-02 4.265e-02 
secure_data_out\[21\] O *L 0.000e+00 *S 3.858e-02 4.272e-02 
secure_data_out\[20\] O *L 0.000e+00 *S 5.245e-02 5.957e-02 
secure_data_out\[19\] O *L 0.000e+00 *S 4.007e-02 4.462e-02 
secure_data_out\[18\] O *L 0.000e+00 *S 3.798e-02 4.209e-02 
secure_data_out\[17\] O *L 0.000e+00 *S 4.406e-02 4.930e-02 
secure_data_out\[16\] O *L 0.000e+00 *S 4.615e-02 5.196e-02 
secure_data_out\[15\] O *L 0.000e+00 *S 3.098e-02 3.358e-02 
secure_data_out\[14\] O *L 0.000e+00 *S 2.463e-02 2.645e-02 
secure_data_out\[13\] O *L 0.000e+00 *S 4.124e-02 5.252e-02 
secure_data_out\[12\] O *L 0.000e+00 *S 5.025e-02 6.691e-02 
secure_data_out\[11\] O *L 0.000e+00 *S 4.867e-02 5.501e-02 
secure_data_out\[10\] O *L 0.000e+00 *S 5.575e-02 6.355e-02 
secure_data_out\[9\] O *L 0.000e+00 *S 4.495e-02 5.051e-02 
secure_data_out\[8\] O *L 0.000e+00 *S 2.713e-02 2.926e-02 
secure_data_out\[7\] O *L 0.000e+00 *S 4.607e-02 5.186e-02 
secure_data_out\[6\] O *L 0.000e+00 *S 4.827e-02 5.452e-02 
secure_data_out\[5\] O *L 0.000e+00 *S 3.665e-02 4.526e-02 
secure_data_out\[4\] O *L 0.000e+00 *S 5.607e-02 6.395e-02 
secure_data_out\[3\] O *L 0.000e+00 *S 4.031e-02 4.491e-02 
secure_data_out\[2\] O *L 0.000e+00 *S 3.569e-02 3.887e-02 
secure_data_out\[1\] O *L 0.000e+00 *S 4.507e-02 5.065e-02 
secure_data_out\[0\] O *L 0.000e+00 *S 3.410e-02 3.709e-02 
memory_address\[63\] O *L 0.000e+00 *S 4.618e-02 5.179e-02 
memory_address\[62\] O *L 0.000e+00 *S 4.843e-02 5.445e-02 
memory_address\[61\] O *L 0.000e+00 *S 4.038e-02 4.497e-02 
memory_address\[60\] O *L 0.000e+00 *S 4.773e-02 5.362e-02 
memory_address\[59\] O *L 0.000e+00 *S 2.356e-02 2.525e-02 
memory_address\[58\] O *L 0.000e+00 *S 1.564e-02 1.766e-02 
memory_address\[57\] O *L 0.000e+00 *S 1.679e-02 1.897e-02 
memory_address\[56\] O *L 0.000e+00 *S 1.668e-02 1.884e-02 
memory_address\[55\] O *L 0.000e+00 *S 3.804e-02 4.222e-02 
memory_address\[54\] O *L 0.000e+00 *S 4.249e-02 4.745e-02 
memory_address\[53\] O *L 0.000e+00 *S 3.749e-02 4.157e-02 
memory_address\[52\] O *L 0.000e+00 *S 4.152e-02 4.631e-02 
memory_address\[51\] O *L 0.000e+00 *S 2.795e-02 3.028e-02 
memory_address\[50\] O *L 0.000e+00 *S 2.577e-02 2.750e-02 
memory_address\[49\] O *L 0.000e+00 *S 1.485e-02 1.605e-02 
memory_address\[48\] O *L 0.000e+00 *S 2.806e-02 2.989e-02 
memory_address\[47\] O *L 0.000e+00 *S 4.266e-02 4.765e-02 
memory_address\[46\] O *L 0.000e+00 *S 5.538e-02 6.262e-02 
memory_address\[45\] O *L 0.000e+00 *S 4.722e-02 5.302e-02 
memory_address\[44\] O *L 0.000e+00 *S 4.573e-02 5.126e-02 
memory_address\[43\] O *L 0.000e+00 *S 1.875e-02 2.118e-02 
memory_address\[42\] O *L 0.000e+00 *S 2.486e-02 2.655e-02 
memory_address\[41\] O *L 0.000e+00 *S 2.591e-02 2.925e-02 
memory_address\[40\] O *L 0.000e+00 *S 1.049e-02 1.121e-02 
memory_address\[39\] O *L 0.000e+00 *S 4.101e-02 4.571e-02 
memory_address\[38\] O *L 0.000e+00 *S 4.365e-02 4.882e-02 
memory_address\[37\] O *L 0.000e+00 *S 4.983e-02 5.609e-02 
memory_address\[36\] O *L 0.000e+00 *S 3.667e-02 4.060e-02 
memory_address\[35\] O *L 0.000e+00 *S 3.591e-01 4.663e-01 
memory_address\[34\] O *L 0.000e+00 *S 6.284e-02 7.212e-02 
memory_address\[33\] O *L 0.000e+00 *S 4.091e-01 4.758e-01 
memory_address\[32\] O *L 0.000e+00 *S 6.223e-02 7.138e-02 
memory_address\[31\] O *L 0.000e+00 *S 4.625e-02 5.188e-02 
memory_address\[30\] O *L 0.000e+00 *S 4.795e-02 5.214e-02 
memory_address\[29\] O *L 0.000e+00 *S 1.965e-02 2.219e-02 
memory_address\[28\] O *L 0.000e+00 *S 1.670e-02 1.886e-02 
memory_address\[27\] O *L 0.000e+00 *S 3.612e-02 3.995e-02 
memory_address\[26\] O *L 0.000e+00 *S 3.834e-02 4.256e-02 
memory_address\[25\] O *L 0.000e+00 *S 5.618e-02 7.640e-02 
memory_address\[24\] O *L 0.000e+00 *S 3.849e-02 4.274e-02 
memory_address\[23\] O *L 0.000e+00 *S 1.835e-02 1.948e-02 
memory_address\[22\] O *L 0.000e+00 *S 2.553e-02 2.726e-02 
memory_address\[21\] O *L 0.000e+00 *S 2.168e-02 2.323e-02 
memory_address\[20\] O *L 0.000e+00 *S 1.180e-02 1.236e-02 
memory_address\[19\] O *L 0.000e+00 *S 4.284e-02 5.507e-02 
memory_address\[18\] O *L 0.000e+00 *S 5.476e-02 7.412e-02 
memory_address\[17\] O *L 0.000e+00 *S 3.593e-02 4.428e-02 
memory_address\[16\] O *L 0.000e+00 *S 4.958e-02 6.584e-02 
memory_address\[15\] O *L 0.000e+00 *S 4.109e-02 4.478e-02 
memory_address\[14\] O *L 0.000e+00 *S 2.866e-02 3.052e-02 
memory_address\[13\] O *L 0.000e+00 *S 3.181e-02 3.449e-02 
memory_address\[12\] O *L 0.000e+00 *S 1.282e-02 1.388e-02 
memory_address\[11\] O *L 0.000e+00 *S 3.558e-02 3.932e-02 
memory_address\[10\] O *L 0.000e+00 *S 3.667e-02 4.060e-02 
memory_address\[9\] O *L 0.000e+00 *S 5.333e-02 7.183e-02 
memory_address\[8\] O *L 0.000e+00 *S 3.711e-02 4.112e-02 
memory_address\[7\] O *L 0.000e+00 *S 6.211e-02 7.124e-02 
memory_address\[6\] O *L 0.000e+00 *S 5.390e-02 5.949e-02 
memory_address\[5\] O *L 0.000e+00 *S 5.931e-02 6.785e-02 
memory_address\[4\] O *L 0.000e+00 *S 6.271e-02 7.196e-02 
memory_address\[3\] O *L 0.000e+00 *S 5.530e-02 7.499e-02 
memory_address\[2\] O *L 0.000e+00 *S 2.455e-02 2.784e-02 
memory_address\[1\] O *L 0.000e+00 *S 4.136e-02 4.612e-02 
memory_address\[0\] O *L 0.000e+00 *S 2.390e-02 2.785e-02 
data_ready O *L 0.000e+00 *S 5.857e-02 6.447e-02 
power_ack_signals\[20\] O *L 0.000e+00 *S 0.000e+00 0.000e+00 
power_ack_signals\[19\] O *L 0.000e+00 *S 5.997e-02 6.605e-02 
power_ack_signals\[18\] O *L 0.000e+00 *S 5.973e-02 6.578e-02 
power_ack_signals\[17\] O *L 0.000e+00 *S 3.166e-02 3.435e-02 
power_ack_signals\[16\] O *L 0.000e+00 *S 5.533e-02 6.085e-02 
power_ack_signals\[15\] O *L 0.000e+00 *S 5.729e-02 6.542e-02 
power_ack_signals\[14\] O *L 0.000e+00 *S 5.727e-02 6.484e-02 
power_ack_signals\[13\] O *L 0.000e+00 *S 6.085e-02 8.385e-02 
power_ack_signals\[12\] O *L 0.000e+00 *S 2.660e-02 2.867e-02 
power_ack_signals\[11\] O *L 0.000e+00 *S 3.782e-02 4.196e-02 
power_ack_signals\[10\] O *L 0.000e+00 *S 2.606e-02 2.806e-02 
power_ack_signals\[9\] O *L 0.000e+00 *S 2.986e-02 3.234e-02 
power_ack_signals\[8\] O *L 0.000e+00 *S 2.870e-02 3.103e-02 
power_ack_signals\[7\] O *L 0.000e+00 *S 4.397e-02 4.815e-02 
power_ack_signals\[6\] O *L 0.000e+00 *S 5.437e-02 6.189e-02 
power_ack_signals\[5\] O *L 0.000e+00 *S 5.489e-02 6.037e-02 
power_ack_signals\[4\] O *L 0.000e+00 *S 4.677e-02 6.135e-02 
power_ack_signals\[3\] O *L 0.000e+00 *S 1.026e-01 1.138e-01 
power_ack_signals\[2\] O *L 0.000e+00 *S 4.676e-02 6.133e-02 
power_ack_signals\[1\] O *L 0.000e+00 *S 3.036e-02 3.289e-02 
power_ack_signals\[0\] O *L 0.000e+00 *S 3.869e-02 4.224e-02 

*R_NET secure_data_in\[31\] 5.035e+02
*DRIVER secure_data_in\[31\]
*CELL NULL
*C2_R1_C1 2.517e+02 1.292e-02 2.517e+02 
*LOADS
*RC piso_secure_1/din_15__UPF_LS:A 2.172e+00
*END

*R_NET secure_data_in\[30\] 4.994e+02
*DRIVER secure_data_in\[30\]
*CELL NULL
*C2_R1_C1 2.497e+02 1.281e-02 2.497e+02 
*LOADS
*RC piso_secure_1/din_14__UPF_LS:A 2.137e+00
*END

*R_NET secure_data_in\[29\] 5.076e+02
*DRIVER secure_data_in\[29\]
*CELL NULL
*C2_R1_C1 2.538e+02 1.297e-02 2.538e+02 
*LOADS
*RC piso_secure_1/din_13__UPF_LS:A 2.197e+00
*END

*R_NET secure_data_in\[28\] 5.087e+02
*DRIVER secure_data_in\[28\]
*CELL NULL
*C2_R1_C1 2.544e+02 1.300e-02 2.544e+02 
*LOADS
*RC piso_secure_1/din_12__UPF_LS:A 2.209e+00
*END

*R_NET secure_data_in\[27\] 5.045e+02
*DRIVER secure_data_in\[27\]
*CELL NULL
*C2_R1_C1 2.523e+02 1.285e-02 2.523e+02 
*LOADS
*RC piso_secure_1/din_11__UPF_LS:A 2.182e+00
*END

*R_NET secure_data_in\[26\] 5.183e+02
*DRIVER secure_data_in\[26\]
*CELL NULL
*C2_R1_C1 2.592e+02 1.322e-02 2.592e+02 
*LOADS
*RC piso_secure_1/din_10__UPF_LS:A 2.288e+00
*END

*R_NET secure_data_in\[25\] 4.969e+02
*DRIVER secure_data_in\[25\]
*CELL NULL
*C2_R1_C1 2.485e+02 1.275e-02 2.485e+02 
*LOADS
*RC piso_secure_1/din_9__UPF_LS:A 2.115e+00
*END

*R_NET secure_data_in\[24\] 5.074e+02
*DRIVER secure_data_in\[24\]
*CELL NULL
*C2_R1_C1 2.537e+02 1.304e-02 2.537e+02 
*LOADS
*RC piso_secure_1/din_8__UPF_LS:A 2.208e+00
*END

*R_NET secure_data_in\[23\] 5.156e+02
*DRIVER secure_data_in\[23\]
*CELL NULL
*C2_R1_C1 2.578e+02 1.315e-02 2.578e+02 
*LOADS
*RC piso_secure_1/din_7__UPF_LS:A 2.282e+00
*END

*R_NET secure_data_in\[22\] 4.923e+02
*DRIVER secure_data_in\[22\]
*CELL NULL
*C2_R1_C1 2.461e+02 1.255e-02 2.461e+02 
*LOADS
*RC piso_secure_1/din_6__UPF_LS:A 2.079e+00
*END

*R_NET secure_data_in\[21\] 4.876e+02
*DRIVER secure_data_in\[21\]
*CELL NULL
*C2_R1_C1 2.438e+02 1.249e-02 2.438e+02 
*LOADS
*RC piso_secure_1/din_5__UPF_LS:A 2.033e+00
*END

*R_NET secure_data_in\[20\] 5.143e+02
*DRIVER secure_data_in\[20\]
*CELL NULL
*C2_R1_C1 2.571e+02 1.322e-02 2.571e+02 
*LOADS
*RC piso_secure_1/din_4__UPF_LS:A 2.270e+00
*END

*R_NET secure_data_in\[19\] 5.094e+02
*DRIVER secure_data_in\[19\]
*CELL NULL
*C2_R1_C1 2.547e+02 1.309e-02 2.547e+02 
*LOADS
*RC piso_secure_1/din_3__UPF_LS:A 2.225e+00
*END

*R_NET secure_data_in\[18\] 5.089e+02
*DRIVER secure_data_in\[18\]
*CELL NULL
*C2_R1_C1 2.544e+02 1.300e-02 2.544e+02 
*LOADS
*RC piso_secure_1/din_2__UPF_LS:A 2.225e+00
*END

*R_NET secure_data_in\[17\] 5.126e+02
*DRIVER secure_data_in\[17\]
*CELL NULL
*C2_R1_C1 2.563e+02 1.305e-02 2.563e+02 
*LOADS
*RC piso_secure_1/din_1__UPF_LS:A 2.250e+00
*END

*R_NET secure_data_in\[16\] 5.016e+02
*DRIVER secure_data_in\[16\]
*CELL NULL
*C2_R1_C1 2.508e+02 1.278e-02 2.508e+02 
*LOADS
*RC piso_secure_1/din_0__UPF_LS:A 2.158e+00
*END

*R_NET secure_data_in\[15\] 5.085e+02
*DRIVER secure_data_in\[15\]
*CELL NULL
*C2_R1_C1 2.543e+02 1.296e-02 2.543e+02 
*LOADS
*RC piso_secure_0/din_15__UPF_LS:A 2.219e+00
*END

*R_NET secure_data_in\[14\] 5.017e+02
*DRIVER secure_data_in\[14\]
*CELL NULL
*C2_R1_C1 2.508e+02 1.278e-02 2.508e+02 
*LOADS
*RC piso_secure_0/din_14__UPF_LS:A 2.158e+00
*END

*R_NET secure_data_in\[13\] 5.107e+02
*DRIVER secure_data_in\[13\]
*CELL NULL
*C2_R1_C1 2.553e+02 1.305e-02 2.553e+02 
*LOADS
*RC piso_secure_0/din_13__UPF_LS:A 2.242e+00
*END

*R_NET secure_data_in\[12\] 4.942e+02
*DRIVER secure_data_in\[12\]
*CELL NULL
*C2_R1_C1 2.471e+02 1.262e-02 2.471e+02 
*LOADS
*RC piso_secure_0/din_12__UPF_LS:A 2.099e+00
*END

*R_NET secure_data_in\[11\] 4.991e+02
*DRIVER secure_data_in\[11\]
*CELL NULL
*C2_R1_C1 2.496e+02 1.275e-02 2.496e+02 
*LOADS
*RC piso_secure_0/din_11__UPF_LS:A 2.141e+00
*END

*R_NET secure_data_in\[10\] 5.136e+02
*DRIVER secure_data_in\[10\]
*CELL NULL
*C2_R1_C1 2.568e+02 1.317e-02 2.568e+02 
*LOADS
*RC piso_secure_0/din_10__UPF_LS:A 2.258e+00
*END

*R_NET secure_data_in\[9\] 4.997e+02
*DRIVER secure_data_in\[9\]
*CELL NULL
*C2_R1_C1 2.498e+02 1.277e-02 2.498e+02 
*LOADS
*RC piso_secure_0/din_9__UPF_LS:A 2.148e+00
*END

*R_NET secure_data_in\[8\] 5.012e+02
*DRIVER secure_data_in\[8\]
*CELL NULL
*C2_R1_C1 2.506e+02 1.277e-02 2.506e+02 
*LOADS
*RC piso_secure_0/din_8__UPF_LS:A 2.154e+00
*END

*R_NET secure_data_in\[7\] 5.131e+02
*DRIVER secure_data_in\[7\]
*CELL NULL
*C2_R1_C1 2.565e+02 1.312e-02 2.565e+02 
*LOADS
*RC piso_secure_0/din_7__UPF_LS:A 2.249e+00
*END

*R_NET secure_data_in\[6\] 5.049e+02
*DRIVER secure_data_in\[6\]
*CELL NULL
*C2_R1_C1 2.525e+02 1.291e-02 2.525e+02 
*LOADS
*RC piso_secure_0/din_6__UPF_LS:A 2.178e+00
*END

*R_NET secure_data_in\[5\] 4.984e+02
*DRIVER secure_data_in\[5\]
*CELL NULL
*C2_R1_C1 2.492e+02 1.274e-02 2.492e+02 
*LOADS
*RC piso_secure_0/din_5__UPF_LS:A 2.121e+00
*END

*R_NET secure_data_in\[4\] 5.175e+02
*DRIVER secure_data_in\[4\]
*CELL NULL
*C2_R1_C1 2.587e+02 1.322e-02 2.587e+02 
*LOADS
*RC piso_secure_0/din_4__UPF_LS:A 2.285e+00
*END

*R_NET secure_data_in\[3\] 4.965e+02
*DRIVER secure_data_in\[3\]
*CELL NULL
*C2_R1_C1 2.482e+02 1.269e-02 2.482e+02 
*LOADS
*RC piso_secure_0/din_3__UPF_LS:A 2.105e+00
*END

*R_NET secure_data_in\[2\] 5.162e+02
*DRIVER secure_data_in\[2\]
*CELL NULL
*C2_R1_C1 2.581e+02 1.320e-02 2.581e+02 
*LOADS
*RC piso_secure_0/din_2__UPF_LS:A 2.277e+00
*END

*R_NET secure_data_in\[1\] 5.187e+02
*DRIVER secure_data_in\[1\]
*CELL NULL
*C2_R1_C1 2.593e+02 1.329e-02 2.593e+02 
*LOADS
*RC piso_secure_0/din_1__UPF_LS:A 2.303e+00
*END

*R_NET secure_data_in\[0\] 5.079e+02
*DRIVER secure_data_in\[0\]
*CELL NULL
*C2_R1_C1 2.540e+02 1.297e-02 2.540e+02 
*LOADS
*RC piso_secure_0/din_0__UPF_LS:A 2.202e+00
*END

*R_NET hash_key\[31\] 2.119e+02
*DRIVER hash_key\[31\]
*CELL NULL
*C2_R1_C1 1.060e+02 5.687e-03 1.060e+02 
*LOADS
*RC hash_it/U37:CI 4.072e-01
*END

*R_NET hash_key\[30\] 1.367e+02
*DRIVER hash_key\[30\]
*CELL NULL
*C2_R1_C1 6.833e+01 3.752e-03 6.833e+01 
*LOADS
*RC hash_it/U7:A1 1.744e-01
*END

*R_NET hash_key\[29\] 2.167e+02
*DRIVER hash_key\[29\]
*CELL NULL
*C2_R1_C1 1.083e+02 5.745e-03 1.083e+02 
*LOADS
*RC hash_it/U10:A2 4.203e-01
*END

*R_NET hash_key\[28\] 1.743e+02
*DRIVER hash_key\[28\]
*CELL NULL
*C2_R1_C1 8.713e+01 4.819e-03 8.713e+01 
*LOADS
*RC hash_it/U13:A2 2.840e-01
*END

*R_NET hash_key\[27\] 1.659e+02
*DRIVER hash_key\[27\]
*CELL NULL
*C2_R1_C1 8.293e+01 4.569e-03 8.293e+01 
*LOADS
*RC hash_it/U33:A3 2.569e-01
*END

*R_NET hash_key\[26\] 1.790e+02
*DRIVER hash_key\[26\]
*CELL NULL
*C2_R1_C1 8.949e+01 4.900e-03 8.949e+01 
*LOADS
*RC hash_it/U36:A3 2.969e-01
*END

*R_NET hash_key\[25\] 2.251e+02
*DRIVER hash_key\[25\]
*CELL NULL
*C2_R1_C1 1.126e+02 6.023e-03 1.126e+02 
*LOADS
*RC hash_it/U5:A3 4.571e-01
*END

*R_NET hash_key\[24\] 2.164e+02
*DRIVER hash_key\[24\]
*CELL NULL
*C2_R1_C1 1.082e+02 5.819e-03 1.082e+02 
*LOADS
*RC hash_it/U18:A2 4.238e-01
*END

*R_NET hash_key\[23\] 2.217e+02
*DRIVER hash_key\[23\]
*CELL NULL
*C2_R1_C1 1.108e+02 5.876e-03 1.108e+02 
*LOADS
*RC hash_it/U31:CI 4.398e-01
*END

*R_NET hash_key\[22\] 2.198e+02
*DRIVER hash_key\[22\]
*CELL NULL
*C2_R1_C1 1.099e+02 5.853e-03 1.099e+02 
*LOADS
*RC hash_it/U24:A2 4.343e-01
*END

*R_NET hash_key\[21\] 1.421e+02
*DRIVER hash_key\[21\]
*CELL NULL
*C2_R1_C1 7.106e+01 3.867e-03 7.106e+01 
*LOADS
*RC hash_it/U26:A2 1.868e-01
*END

*R_NET hash_key\[20\] 1.442e+02
*DRIVER hash_key\[20\]
*CELL NULL
*C2_R1_C1 7.208e+01 3.941e-03 7.208e+01 
*LOADS
*RC hash_it/U42:CI 1.932e-01
*END

*R_NET hash_key\[19\] 1.991e+02
*DRIVER hash_key\[19\]
*CELL NULL
*C2_R1_C1 9.956e+01 5.497e-03 9.956e+01 
*LOADS
*RC hash_it/U25:CI 3.702e-01
*END

*R_NET hash_key\[18\] 1.705e+02
*DRIVER hash_key\[18\]
*CELL NULL
*C2_R1_C1 8.526e+01 4.664e-03 8.526e+01 
*LOADS
*RC hash_it/U32:A3 2.694e-01
*END

*R_NET hash_key\[17\] 2.117e+02
*DRIVER hash_key\[17\]
*CELL NULL
*C2_R1_C1 1.058e+02 5.606e-03 1.058e+02 
*LOADS
*RC hash_it/U27:CI 4.009e-01
*END

*R_NET hash_key\[16\] 2.134e+02
*DRIVER hash_key\[16\]
*CELL NULL
*C2_R1_C1 1.067e+02 5.655e-03 1.067e+02 
*LOADS
*RC hash_it/U34:CI 4.077e-01
*END

*R_NET hash_key\[15\] 1.983e+02
*DRIVER hash_key\[15\]
*CELL NULL
*C2_R1_C1 9.913e+01 5.373e-03 9.913e+01 
*LOADS
*RC hash_it/U15:A1 3.572e-01
*END

*R_NET hash_key\[14\] 2.041e+02
*DRIVER hash_key\[14\]
*CELL NULL
*C2_R1_C1 1.021e+02 5.485e-03 1.021e+02 
*LOADS
*RC hash_it/U30:A1 3.755e-01
*END

*R_NET hash_key\[13\] 1.444e+02
*DRIVER hash_key\[13\]
*CELL NULL
*C2_R1_C1 7.220e+01 3.985e-03 7.220e+01 
*LOADS
*RC hash_it/U11:A2 1.934e-01
*END

*R_NET hash_key\[12\] 1.963e+02
*DRIVER hash_key\[12\]
*CELL NULL
*C2_R1_C1 9.816e+01 5.470e-03 9.816e+01 
*LOADS
*RC hash_it/U29:A2 3.596e-01
*END

*R_NET hash_key\[11\] 1.382e+02
*DRIVER hash_key\[11\]
*CELL NULL
*C2_R1_C1 6.908e+01 3.841e-03 6.908e+01 
*LOADS
*RC hash_it/U8:A2 1.781e-01
*END

*R_NET hash_key\[10\] 1.373e+02
*DRIVER hash_key\[10\]
*CELL NULL
*C2_R1_C1 6.867e+01 3.799e-03 6.867e+01 
*LOADS
*RC hash_it/U39:A1 1.753e-01
*END

*R_NET hash_key\[9\] 2.159e+02
*DRIVER hash_key\[9\]
*CELL NULL
*C2_R1_C1 1.079e+02 5.785e-03 1.079e+02 
*LOADS
*RC hash_it/U23:A2 4.181e-01
*END

*R_NET hash_key\[8\] 2.116e+02
*DRIVER hash_key\[8\]
*CELL NULL
*C2_R1_C1 1.058e+02 5.690e-03 1.058e+02 
*LOADS
*RC hash_it/U21:A2 4.034e-01
*END

*R_NET hash_key\[7\] 2.014e+02
*DRIVER hash_key\[7\]
*CELL NULL
*C2_R1_C1 1.007e+02 5.549e-03 1.007e+02 
*LOADS
*RC hash_it/U19:A2 3.745e-01
*END

*R_NET hash_key\[6\] 2.006e+02
*DRIVER hash_key\[6\]
*CELL NULL
*C2_R1_C1 1.003e+02 5.535e-03 1.003e+02 
*LOADS
*RC hash_it/U17:A2 3.718e-01
*END

*R_NET hash_key\[5\] 1.435e+02
*DRIVER hash_key\[5\]
*CELL NULL
*C2_R1_C1 7.173e+01 3.989e-03 7.173e+01 
*LOADS
*RC hash_it/U16:A1 1.922e-01
*END

*R_NET hash_key\[4\] 1.476e+02
*DRIVER hash_key\[4\]
*CELL NULL
*C2_R1_C1 7.378e+01 4.106e-03 7.378e+01 
*LOADS
*RC hash_it/U12:A2 2.035e-01
*END

*R_NET hash_key\[3\] 1.426e+02
*DRIVER hash_key\[3\]
*CELL NULL
*C2_R1_C1 7.128e+01 3.951e-03 7.128e+01 
*LOADS
*RC hash_it/U14:A1 1.893e-01
*END

*R_NET hash_key\[2\] 2.184e+02
*DRIVER hash_key\[2\]
*CELL NULL
*C2_R1_C1 1.092e+02 5.809e-03 1.092e+02 
*LOADS
*RC hash_it/U9:A1 4.250e-01
*END

*R_NET hash_key\[1\] 1.366e+02
*DRIVER hash_key\[1\]
*CELL NULL
*C2_R1_C1 6.830e+01 3.750e-03 6.830e+01 
*LOADS
*RC hash_it/U7:A2 1.743e-01
*END

*R_NET hash_key\[0\] 1.926e+02
*DRIVER hash_key\[0\]
*CELL NULL
*C2_R1_C1 9.629e+01 5.359e-03 9.629e+01 
*LOADS
*RC hash_it/U4:A2 3.460e-01
*END

*R_NET isolation_signals\[1\] 4.527e+01
*DRIVER isolation_signals\[1\]
*CELL NULL
*C2_R1_C1 2.264e+01 9.548e-04 2.264e+01 
*LOADS
*RC U752:A 1.484e-02
*RC U745:A 1.484e-02
*RC U751:A 1.484e-02
*RC U884:A 1.484e-02
*END

*R_NET isolation_signals\[0\] 2.755e+01
*DRIVER isolation_signals\[0\]
*CELL NULL
*C2_R1_C1 1.378e+01 5.695e-04 1.378e+01 
*LOADS
*RC U602:A 3.327e-03
*RC U603:A 4.901e-03
*END

*R_NET sipo_scan_in 1.837e+03
*DRIVER sipo_scan_in
*CELL NULL
*C2_R1_C1 9.187e+02 4.509e-02 9.187e+02 
*LOADS
*RC sync_hash_data/dut_sync/U5:A1 1.003e+01
*RC U296:A4 1.030e+01
*RC U780:A1 7.771e+00
*RC U109:A4 1.043e+01
*RC sync_hash_data/dut_sync/U5:A4 1.003e+01
*RC U698:A1 9.173e+00
*RC U48:A1 1.187e+00
*RC U54:A1 9.549e+00
*RC U648:A1 9.864e+00
*RC U806:A1 6.475e+00
*RC U695:A1 2.054e+00
*RC U760:A1 8.972e+00
*RC U248:A1 5.798e+00
*RC U730:A1 1.355e+01
*RC U704:A1 6.894e+00
*RC U719:A1 3.938e+00
*RC U736:A1 7.163e+00
*RC U680:A1 7.492e+00
*RC U885:A1 5.931e+00
*RC U669:A1 5.519e+00
*RC U748:A1 7.401e+00
*RC U791:A1 7.133e+00
*RC U778:A1 7.328e+00
*RC U850:A1 8.868e+00
*RC U687:A1 4.029e-01
*RC bit_coin_U_decompressor_ScanCompression_mode/U17:A 1.088e+00
*END

*R_NET piso_scan_in 8.851e+02
*DRIVER piso_scan_in
*CELL NULL
*C2_R1_C1 4.426e+02 2.282e-02 4.426e+02 
*LOADS
*RC U50:A1 3.133e-01
*RC U439:A 3.712e-01
*RC U1336:A 7.789e-01
*RC U796:A1 5.950e-01
*RC U714:A1 1.183e+00
*RC U726:A1 7.223e-01
*RC U56:A3 3.882e+00
*RC U754:A1 4.903e+00
*RC U773:A1 3.763e+00
*RC U857:A1 3.754e+00
*RC U683:A1 3.481e+00
*RC U825:A1 3.451e+00
*RC U720:A1 3.531e+00
*RC U676:A1 3.581e+00
*RC U787:A1 4.166e+00
*RC U699:A1 6.230e-01
*RC U815:A1 7.688e-01
*RC U892:A1 1.103e-01
*RC U693:A1 5.543e-01
*RC bit_coin_U_decompressor_ScanCompression_mode/U7:A 3.907e+00
*RC bit_coin_U_decompressor_ScanCompression_mode/U2:A3 6.303e-01
*RC bit_coin_U_decompressor_ScanCompression_mode/U1:A4 6.164e-01
*END

*R_NET hv_scan_in 1.987e+03
*DRIVER hv_scan_in
*CELL NULL
*C2_R1_C1 9.937e+02 4.832e-02 9.937e+02 
*LOADS
*RC U54:A3 1.055e+01
*RC U841:A1 5.711e+00
*RC U890:A1 6.022e+00
*RC U891:A1 2.656e+00
*RC U846:A1 6.829e+00
*RC U882:A1 8.507e+00
*RC U867:A1 8.545e+00
*RC U270:A1 8.229e+00
*RC U263:A1 1.129e+01
*RC U888:A1 1.029e+01
*RC U871:A1 3.648e+00
*RC U886:A1 9.294e+00
*RC U824:A1 6.290e+00
*RC U883:A1 2.282e+00
*RC U816:A1 9.625e-01
*RC U881:A1 1.063e+01
*RC U880:A1 1.637e+00
*RC bit_coin_U_compressor_ScanCompression_mode/U59:A1 5.476e-01
*RC bit_coin_U_compressor_ScanCompression_mode/U376:A1 5.478e-01
*RC bit_coin_U_compressor_ScanCompression_mode/U383:A1 7.092e-01
*RC bit_coin_U_compressor_ScanCompression_mode/U85:A 4.428e-01
*RC bit_coin_U_compressor_ScanCompression_mode/U143:A3 4.570e-01
*RC bit_coin_U_compressor_ScanCompression_mode/U54:A3 4.985e-01
*RC bit_coin_U_compressor_ScanCompression_mode/U215:A2 3.887e-01
*RC bit_coin_U_compressor_ScanCompression_mode/U53:A2 3.386e-01
*RC bit_coin_U_compressor_ScanCompression_mode/U56:A2 4.416e-01
*RC bit_coin_U_decompressor_ScanCompression_mode/U2:A2 1.166e+00
*RC bit_coin_U_decompressor_ScanCompression_mode/U1:A3 1.137e+00
*RC bit_coin_U_decompressor_ScanCompression_mode/U3:A 1.160e+00
*END

*R_NET lv_scan_in 7.236e+02
*DRIVER lv_scan_in
*CELL NULL
*C2_R1_C1 3.618e+02 1.787e-02 3.618e+02 
*LOADS
*RC bit_coin_U_compressor_ScanCompression_mode/U326:A1 2.089e-01
*RC bit_coin_U_compressor_ScanCompression_mode/U63:A1 2.394e-01
*RC bit_coin_U_compressor_ScanCompression_mode/U58:A3 1.675e-01
*RC bit_coin_U_compressor_ScanCompression_mode/U142:A3 1.357e-01
*RC bit_coin_U_compressor_ScanCompression_mode/U143:A2 1.888e-01
*RC bit_coin_U_compressor_ScanCompression_mode/U146:A3 1.057e-01
*RC bit_coin_U_compressor_ScanCompression_mode/U219:A1 2.438e-01
*RC bit_coin_U_compressor_ScanCompression_mode/U5:A3 8.368e-02
*RC bit_coin_U_compressor_ScanCompression_mode/U65:A3 3.507e-01
*RC bit_coin_U_compressor_ScanCompression_mode/U54:A4 1.969e-01
*RC U591:A 6.190e-01
*RC U606:A 3.010e-01
*RC U658:A1 4.059e-01
*RC U652:A1 3.171e-01
*RC U645:A1 6.129e-01
*RC U614:A1 2.698e-01
*RC U623:A1 3.486e-01
*RC U628:A1 6.896e-01
*RC U604:A1 1.664e-01
*RC U664:A1 2.698e-01
*RC U615:A1 5.307e-01
*RC U621:A1 4.978e-01
*RC U608:A1 1.053e-01
*RC piso_secure_0/scan_in8_UPF_LS:A 3.406e+00
*END

*R_NET n870 5.889e+01
*DRIVER bit_secure_15/U153:Y
*CELL NBUFFX8_HVT
*C2_R1_C1 2.944e+01 1.606e-03 2.944e+01 
*LOADS
*RC U91:A 3.233e-02
*END

*R_NET n871 4.453e+01
*DRIVER bit_secure_15/U155:Y
*CELL NBUFFX8_HVT
*C2_R1_C1 2.226e+01 1.210e-03 2.226e+01 
*LOADS
*RC U90:A 1.856e-02
*END

*R_NET n872 9.315e+01
*DRIVER bit_secure_14/U153:Y
*CELL NBUFFX8_HVT
*C2_R1_C1 4.658e+01 2.536e-03 4.658e+01 
*LOADS
*RC U103:A 8.115e-02
*END

*R_NET n873 7.554e+01
*DRIVER bit_secure_14/U155:Y
*CELL NBUFFX8_HVT
*C2_R1_C1 3.777e+01 2.039e-03 3.777e+01 
*LOADS
*RC U102:A 5.328e-02
*END

*R_NET n874 5.955e+01
*DRIVER bit_secure_13/U153:Y
*CELL NBUFFX8_HVT
*C2_R1_C1 2.977e+01 1.611e-03 2.977e+01 
*LOADS
*RC U118:A 3.276e-02
*END

*R_NET n875 4.626e+01
*DRIVER bit_secure_13/U155:Y
*CELL NBUFFX8_HVT
*C2_R1_C1 2.313e+01 1.257e-03 2.313e+01 
*LOADS
*RC U117:A 2.000e-02
*END

*R_NET n876 9.207e+01
*DRIVER bit_secure_12/U153:Y
*CELL NBUFFX8_HVT
*C2_R1_C1 4.604e+01 2.512e-03 4.604e+01 
*LOADS
*RC U147:A 7.799e-02
*RC U41:A0 6.637e-02
*END

*R_NET n877 7.718e+01
*DRIVER bit_secure_12/U155:Y
*CELL NBUFFX8_HVT
*C2_R1_C1 3.859e+01 2.051e-03 3.859e+01 
*LOADS
*RC U142:A 5.475e-02
*RC U41:B0 4.899e-02
*END

*R_NET n878 6.103e+01
*DRIVER bit_secure_11/U153:Y
*CELL NBUFFX8_HVT
*C2_R1_C1 3.052e+01 1.636e-03 3.052e+01 
*LOADS
*RC U164:A 3.484e-02
*END

*R_NET n879 7.206e+01
*DRIVER bit_secure_11/U155:Y
*CELL NBUFFX8_HVT
*C2_R1_C1 3.603e+01 1.953e-03 3.603e+01 
*LOADS
*RC U163:A 4.789e-02
*END

*R_NET n880 7.823e+01
*DRIVER bit_secure_10/U153:Y
*CELL NBUFFX8_HVT
*C2_R1_C1 3.911e+01 2.070e-03 3.911e+01 
*LOADS
*RC U190:A 5.866e-02
*END

*R_NET n881 4.206e+01
*DRIVER bit_secure_10/U155:Y
*CELL NBUFFX8_HVT
*C2_R1_C1 2.103e+01 1.067e-03 2.103e+01 
*LOADS
*RC U186:A 1.738e-02
*END

*R_NET n882 7.977e+01
*DRIVER bit_secure_9/U153:Y
*CELL NBUFFX8_HVT
*C2_R1_C1 3.988e+01 2.154e-03 3.988e+01 
*LOADS
*RC U207:A 5.933e-02
*END

*R_NET n883 7.168e+01
*DRIVER bit_secure_9/U155:Y
*CELL NBUFFX8_HVT
*C2_R1_C1 3.584e+01 1.920e-03 3.584e+01 
*LOADS
*RC U206:A 4.772e-02
*END

*R_NET n884 7.297e+01
*DRIVER bit_secure_8/U153:Y
*CELL NBUFFX8_HVT
*C2_R1_C1 3.648e+01 1.928e-03 3.648e+01 
*LOADS
*RC U1406:A 5.126e-02
*END

*R_NET n885 6.877e+01
*DRIVER bit_secure_8/U155:Y
*CELL NBUFFX8_HVT
*C2_R1_C1 3.438e+01 1.813e-03 3.438e+01 
*LOADS