*SPEF "IEEE 1481-1999"
*DESIGN "bit_slice"
*DATE "Mon Oct  2 10:28:54 2017"
*VENDOR "SYNOPSYS INC"
*PROGRAM "Synopsys Design Compiler cmos"
*VERSION "M-2016.12-SP5"
*DESIGN_FLOW "SYNTHESIS"
*DIVIDER /
*DELIMITER :
*BUS_DELIMITER []
*T_UNIT 1.0 NS
*C_UNIT 0.0010 PF
*R_UNIT 1000.0 KOHM
*L_UNIT 1.0 HENRY

*PORTS

hclk I *L 0.000e+00 *S 0.000e+00 0.000e+00 
lclk I *L 0.000e+00 *S 0.000e+00 0.000e+00 
reset I *L 0.000e+00 *S 0.000e+00 0.000e+00 
sin I *L 0.000e+00 *S 0.000e+00 0.000e+00 
data_valid I *L 0.000e+00 *S 0.000e+00 0.000e+00 
memory_sleep I *L 0.000e+00 *S 0.000e+00 0.000e+00 
shut_down_signals\[1\] I *L 0.000e+00 *S 0.000e+00 0.000e+00 
shut_down_signals\[0\] I *L 0.000e+00 *S 0.000e+00 0.000e+00 
isolation_signals\[1\] I *L 0.000e+00 *S 0.000e+00 0.000e+00 
isolation_signals\[0\] I *L 0.000e+00 *S 0.000e+00 0.000e+00 
retention_signals\[1\] I *L 0.000e+00 *S 0.000e+00 0.000e+00 
retention_signals\[0\] I *L 0.000e+00 *S 0.000e+00 0.000e+00 
scan_enable I *L 0.000e+00 *S 0.000e+00 0.000e+00 
sipo_scan_in I *L 0.000e+00 *S 0.000e+00 0.000e+00 
piso_scan_in I *L 0.000e+00 *S 0.000e+00 0.000e+00 
hv_scan_in I *L 0.000e+00 *S 0.000e+00 0.000e+00 
lv_scan_in I *L 0.000e+00 *S 0.000e+00 0.000e+00 
sipo_scan_out O *L 0.000e+00 *S 3.568e-02 7.385e-02 
piso_scan_out O *L 0.000e+00 *S 4.626e-02 7.698e-02 
hv_scan_out O *L 0.000e+00 *S 6.555e-02 7.701e-02 
lv_scan_out O *L 0.000e+00 *S 2.322e-02 4.757e-02 
sout O *L 0.000e+00 *S 9.535e-03 8.581e-03 
memory_ack O *L 0.000e+00 *S 3.778e-03 3.745e-03 
PG_ack_signals\[1\] O *L 0.000e+00 *S 0.000e+00 0.000e+00 
PG_ack_signals\[0\] O *L 0.000e+00 *S 0.000e+00 0.000e+00 

*R_NET reset 8.523e+00
*DRIVER reset
*CELL NULL
*C2_R1_C1 4.261e+00 1.004e-04 4.261e+00 
*LOADS
*RC hreset_sync/reset_sync_reg:RSTB 1.391e-04
*RC hreset_sync/t_reset_sync_reg:RSTB 1.882e-04
*RC lreset_sync/reset_sync_reg:RSTB 1.440e-04
*RC lreset_sync/t_reset_sync_reg:RSTB 1.961e-04
*END

*R_NET sin 3.133e+00
*DRIVER sin
*CELL NULL
*C2_R1_C1 1.567e+00 7.247e-05 1.567e+00 
*LOADS
*RC sipo_bit/U69:A2 9.979e-05
*END

*R_NET data_valid 2.828e+01
*DRIVER data_valid
*CELL NULL
*C2_R1_C1 1.414e+01 1.456e-04 1.414e+01 
*LOADS
*RC sipo_bit/U6:A2 8.820e-04
*RC sipo_bit/U54:A1 1.881e-04
*RC sipo_bit/U53:A1 2.220e-04
*RC sipo_bit/U78:A 5.430e-04
*RC sipo_bit/U66:A1 3.566e-04
*RC sipo_bit/U51:A4 2.953e-04
*RC sipo_bit/U44:A2 3.642e-04
*RC sipo_bit/U48:A1 3.020e-04
*RC sipo_bit/U64:A1 5.181e-04
*RC sipo_bit/U41:A1 8.875e-04
*RC sipo_bit/U35:A1 8.712e-04
*RC sipo_bit/U7:A2 8.623e-04
*RC sipo_bit/U15:A2 8.748e-04
*RC sipo_bit/U42:A1 4.324e-04
*RC sipo_bit/U43:A1 3.843e-04
*RC sipo_bit/U60:A1 5.738e-04
*RC sipo_bit/U61:A1 3.539e-04
*RC sipo_bit/U55:A1 4.062e-04
*RC sipo_bit/U56:A1 2.102e-04
*RC sipo_bit/U67:A1 5.522e-04
*RC sipo_bit/U65:A1 4.464e-04
*RC sipo_bit/U58:A1 6.884e-04
*RC sipo_bit/U80:A 4.608e-04
*RC sipo_bit/U62:A1 4.359e-04
*RC sipo_bit/U59:A1 8.534e-04
*RC sipo_bit/U57:A1 4.937e-04
*RC sipo_bit/U68:A1 8.488e-04
*RC sipo_bit/U63:A1 5.159e-04
*RC sipo_bit/U69:A1 6.557e-04
*END

*R_NET memory_sleep 3.779e+00
*DRIVER memory_sleep
*CELL NULL
*C2_R1_C1 1.890e+00 1.033e-04 1.890e+00 
*LOADS
*RC nibble_1:SLEEPIN 7.559e-05
*RC nibble_0:SLEEPIN 7.358e-05
*END

*R_NET isolation_signals\[1\] 3.305e+00
*DRIVER isolation_signals\[1\]
*CELL NULL
*C2_R1_C1 1.652e+00 3.512e-05 1.652e+00 
*LOADS
*RC EN_UPF_LS:A 6.185e-05
*RC piso_bit/snps_PD_PISO__ISO_PISO_OUT_SSL_snps_doutISO_PISO_OUT_SSL:ISO 4.126e-05
*END

*R_NET n4 2.775e+01
*DRIVER isolation_signals_0__UPF_LS:Y
*CELL LSUPX4_HVT
*C2_R1_C1 1.387e+01 3.826e-04 1.387e+01 
*LOADS
*RC snps_PD_SIPO__ISO_SIPO_OUT_snps_pout_7_ISO_SIPO_OUT:EN 1.336e-03
*RC snps_PD_SIPO__ISO_SIPO_OUT_snps_pout_6_ISO_SIPO_OUT:EN 1.027e-03
*RC snps_PD_SIPO__ISO_SIPO_OUT_snps_pout_2_ISO_SIPO_OUT:EN 1.511e-03
*RC snps_PD_SIPO__ISO_SIPO_OUT_snps_pout_9_ISO_SIPO_OUT:EN 1.373e-03
*RC snps_PD_SIPO__ISO_SIPO_OUT_snps_scan_outISO_SIPO_OUT:EN 1.517e-03
*RC snps_PD_SIPO__ISO_SIPO_OUT_snps_addr_3_ISO_SIPO_OUT:EN 1.682e-03
*RC snps_PD_SIPO__ISO_SIPO_OUT_snps_pout_15_ISO_SIPO_OUT:EN 5.930e-04
*RC snps_PD_SIPO__ISO_SIPO_OUT_snps_pout_14_ISO_SIPO_OUT:EN 5.733e-04
*RC snps_PD_SIPO__ISO_SIPO_OUT_snps_pout_13_ISO_SIPO_OUT:EN 1.179e-03
*RC snps_PD_SIPO__ISO_SIPO_OUT_snps_pout_12_ISO_SIPO_OUT:EN 1.987e-03
*RC snps_PD_SIPO__ISO_SIPO_OUT_snps_pout_11_ISO_SIPO_OUT:EN 7.309e-04
*RC snps_PD_SIPO__ISO_SIPO_OUT_snps_pout_10_ISO_SIPO_OUT:EN 1.834e-03
*RC snps_PD_SIPO__ISO_SIPO_OUT_snps_pout_8_ISO_SIPO_OUT:EN 2.172e-03
*RC snps_PD_SIPO__ISO_SIPO_OUT_snps_pout_5_ISO_SIPO_OUT:EN 6.838e-04
*RC snps_PD_SIPO__ISO_SIPO_OUT_snps_pout_4_ISO_SIPO_OUT:EN 8.802e-04
*RC snps_PD_SIPO__ISO_SIPO_OUT_snps_pout_3_ISO_SIPO_OUT:EN 4.668e-04
*RC snps_PD_SIPO__ISO_SIPO_OUT_snps_pout_1_ISO_SIPO_OUT:EN 1.175e-03
*RC snps_PD_SIPO__ISO_SIPO_OUT_snps_pout_0_ISO_SIPO_OUT:EN 1.013e-03
*RC snps_PD_SIPO__ISO_SIPO_OUT_snps_addr_2_ISO_SIPO_OUT:EN 8.404e-04
*RC snps_PD_SIPO__ISO_SIPO_OUT_snps_addr_1_ISO_SIPO_OUT:EN 1.528e-04
*RC snps_PD_SIPO__ISO_SIPO_OUT_snps_addr_0_ISO_SIPO_OUT:EN 1.589e-04
*RC snps_PD_SIPO__ISO_SIPO2MEM_OUT2_snps_wrISO_SIPO2MEM_OUT2:EN 3.430e-04
*END

*R_NET retention_signals\[1\] 3.092e+00
*DRIVER retention_signals\[1\]
*CELL NULL
*C2_R1_C1 1.546e+00 4.809e-05 1.546e+00 
*LOADS
*RC piso_bit/U20:A 3.560e-05
*RC piso_bit/U4:A 7.030e-05
*END

*R_NET retention_signals\[0\] 1.251e+01
*DRIVER retention_signals\[0\]
*CELL NULL
*C2_R1_C1 6.253e+00 1.421e-04 6.253e+00 
*LOADS
*RC sipo_bit/U72:A 5.001e-04
*RC sipo_bit/U40:A 5.477e-04
*RC sipo_bit/U33:A 4.049e-04
*RC sipo_bit/U70:A 1.405e-04
*RC sipo_bit/U71:A 9.119e-05
*RC sipo_bit/U73:A 4.283e-04
*RC sipo_bit/U28:A 2.692e-04
*RC sipo_bit/U74:A 1.174e-04
*END

*R_NET sout 1.291e+00
*DRIVER piso_bit/snps_PD_PISO__ISO_PISO_OUT_SSL_snps_doutISO_PISO_OUT_SSL:Y
*CELL ISO_NOR2X4_HVT
*C2_R1_C1 6.453e-01 3.539e-05 6.453e-01 
*LOADS
*RC sout 1.522e-05
*END

*R_NET memory_ack 2.204e-01
*DRIVER U11:Y
*CELL OR2X1_HVT
*C2_R1_C1 1.102e-01 5.911e-06 1.102e-01 
*LOADS
*RC memory_ack 4.342e-07
*END

*R_NET power_ack\[1\] 2.697e+00
*DRIVER nibble_1:ACK
*CELL SRAM2RW16x4
*C2_R1_C1 1.349e+00 5.485e-05 1.349e+00 
*LOADS
*RC U11:A2 7.484e-05
*END

*R_NET power_ack\[0\] 2.472e+00
*DRIVER nibble_0:ACK
*CELL SRAM2RW16x4
*C2_R1_C1 1.236e+00 5.063e-05 1.236e+00 
*LOADS
*RC U11:A1 6.269e-05
*END

*R_NET t_pout2mem\[15\] 4.213e+00
*DRIVER snps_PD_SIPO__ISO_SIPO_OUT_snps_pout_15_ISO_SIPO_OUT:Y
*CELL LSUPENX1_HVT
*C2_R1_C1 2.107e+00 1.032e-04 2.107e+00 
*LOADS
*RC sync_data2mem/dut_sync/t_sync_out_reg_15_:D 1.803e-04
*END

*R_NET t_pout2mem\[14\] 3.844e+00
*DRIVER snps_PD_SIPO__ISO_SIPO_OUT_snps_pout_14_ISO_SIPO_OUT:Y
*CELL LSUPENX1_HVT
*C2_R1_C1 1.922e+00 9.249e-05 1.922e+00 
*LOADS
*RC sync_data2mem/dut_sync/t_sync_out_reg_14_:D 1.502e-04
*END

*R_NET t_pout2mem\[13\] 6.030e+00
*DRIVER snps_PD_SIPO__ISO_SIPO_OUT_snps_pout_13_ISO_SIPO_OUT:Y
*CELL LSUPENX1_HVT
*C2_R1_C1 3.015e+00 1.496e-04 3.015e+00 
*LOADS
*RC sync_data2mem/dut_sync/t_sync_out_reg_13_:D 3.520e-04
*END

*R_NET t_pout2mem\[12\] 6.035e+00
*DRIVER snps_PD_SIPO__ISO_SIPO_OUT_snps_pout_12_ISO_SIPO_OUT:Y
*CELL LSUPENX1_HVT
*C2_R1_C1 3.018e+00 1.539e-04 3.018e+00 
*LOADS
*RC sync_data2mem/dut_sync/t_sync_out_reg_12_:D 3.624e-04
*END

*R_NET t_pout2mem\[11\] 5.225e+00
*DRIVER snps_PD_SIPO__ISO_SIPO_OUT_snps_pout_11_ISO_SIPO_OUT:Y
*CELL LSUPENX1_HVT
*C2_R1_C1 2.613e+00 1.305e-04 2.613e+00 
*LOADS
*RC sync_data2mem/dut_sync/t_sync_out_reg_11_:D 2.721e-04
*END

*R_NET t_pout2mem\[10\] 4.080e+00
*DRIVER snps_PD_SIPO__ISO_SIPO_OUT_snps_pout_10_ISO_SIPO_OUT:Y
*CELL LSUPENX1_HVT
*C2_R1_C1 2.040e+00 9.935e-05 2.040e+00 
*LOADS
*RC sync_data2mem/dut_sync/t_sync_out_reg_10_:D 1.692e-04
*END

*R_NET t_pout2mem\[9\] 1.877e+00
*DRIVER snps_PD_SIPO__ISO_SIPO_OUT_snps_pout_9_ISO_SIPO_OUT:Y
*CELL LSUPENX1_HVT
*C2_R1_C1 9.386e-01 3.782e-05 9.386e-01 
*LOADS
*RC sync_data2mem/dut_sync/t_sync_out_reg_9_:D 3.663e-05
*END

*R_NET t_pout2mem\[8\] 4.113e+00
*DRIVER snps_PD_SIPO__ISO_SIPO_OUT_snps_pout_8_ISO_SIPO_OUT:Y
*CELL LSUPENX1_HVT
*C2_R1_C1 2.056e+00 1.005e-04 2.056e+00 
*LOADS
*RC sync_data2mem/dut_sync/t_sync_out_reg_8_:D 1.722e-04
*END

*R_NET t_pout2mem\[7\] 6.546e+00
*DRIVER snps_PD_SIPO__ISO_SIPO_OUT_snps_pout_7_ISO_SIPO_OUT:Y
*CELL LSUPENX8_HVT
*C2_R1_C1 3.273e+00 1.682e-04 3.273e+00 
*LOADS
*RC sync_data2mem/dut_sync/t_sync_out_reg_7_:D 4.248e-04
*END

*R_NET t_pout2mem\[6\] 6.982e+00
*DRIVER snps_PD_SIPO__ISO_SIPO_OUT_snps_pout_6_ISO_SIPO_OUT:Y
*CELL LSUPENX4_HVT
*C2_R1_C1 3.491e+00 1.804e-04 3.491e+00 
*LOADS
*RC sync_data2mem/dut_sync/t_sync_out_reg_6_:D 4.818e-04
*END

*R_NET t_pout2mem\[5\] 4.568e+00
*DRIVER snps_PD_SIPO__ISO_SIPO_OUT_snps_pout_5_ISO_SIPO_OUT:Y
*CELL LSUPENX1_HVT
*C2_R1_C1 2.284e+00 1.118e-04 2.284e+00 
*LOADS
*RC sync_data2mem/dut_sync/t_sync_out_reg_5_:D 2.085e-04
*END

*R_NET t_pout2mem\[4\] 8.222e+00
*DRIVER snps_PD_SIPO__ISO_SIPO_OUT_snps_pout_4_ISO_SIPO_OUT:Y
*CELL LSUPENX1_HVT
*C2_R1_C1 4.111e+00 2.130e-04 4.111e+00 
*LOADS
*RC sync_data2mem/dut_sync/t_sync_out_reg_4_:D 6.567e-04
*END

*R_NET t_pout2mem\[3\] 4.678e+00
*DRIVER snps_PD_SIPO__ISO_SIPO_OUT_snps_pout_3_ISO_SIPO_OUT:Y
*CELL LSUPENX1_HVT
*C2_R1_C1 2.339e+00 1.162e-04 2.339e+00 
*LOADS
*RC sync_data2mem/dut_sync/t_sync_out_reg_3_:D 2.210e-04
*END

*R_NET t_pout2mem\[2\] 7.923e+00
*DRIVER snps_PD_SIPO__ISO_SIPO_OUT_snps_pout_2_ISO_SIPO_OUT:Y
*CELL LSUPENX1_HVT
*C2_R1_C1 3.962e+00 2.044e-04 3.962e+00 
*LOADS
*RC sync_data2mem/dut_sync/t_sync_out_reg_2_:D 6.100e-04
*END

*R_NET t_pout2mem\[1\] 4.886e+00
*DRIVER snps_PD_SIPO__ISO_SIPO_OUT_snps_pout_1_ISO_SIPO_OUT:Y
*CELL LSUPENX1_HVT
*C2_R1_C1 2.443e+00 1.211e-04 2.443e+00 
*LOADS
*RC sync_data2mem/dut_sync/t_sync_out_reg_1_:D 2.387e-04
*END

*R_NET t_pout2mem\[0\] 3.839e+00
*DRIVER snps_PD_SIPO__ISO_SIPO_OUT_snps_pout_0_ISO_SIPO_OUT:Y
*CELL LSUPENX1_HVT
*C2_R1_C1 1.919e+00 9.237e-05 1.919e+00 
*LOADS
*RC sync_data2mem/dut_sync/t_sync_out_reg_0_:D 1.499e-04
*END

*R_NET t_pout_addr2mem\[3\] 4.630e+00
*DRIVER U29:Y
*CELL NBUFFX2_HVT
*C2_R1_C1 2.315e+00 1.147e-04 2.315e+00 
*LOADS
*RC sync_add2mem/dut_sync/t_sync_out_reg_3_:D 2.164e-04
*END

*R_NET t_pout_addr2mem\[2\] 5.015e+00
*DRIVER snps_PD_SIPO__ISO_SIPO_OUT_snps_addr_2_ISO_SIPO_OUT:Y
*CELL LSUPENX1_HVT
*C2_R1_C1 2.508e+00 1.230e-04 2.508e+00 
*LOADS
*RC sync_add2mem/dut_sync/t_sync_out_reg_2_:D 2.477e-04
*END

*R_NET t_pout_addr2mem\[1\] 3.154e+00
*DRIVER snps_PD_SIPO__ISO_SIPO_OUT_snps_addr_1_ISO_SIPO_OUT:Y
*CELL LSUPENX1_HVT
*C2_R1_C1 1.577e+00 7.364e-05 1.577e+00 
*LOADS
*RC sync_add2mem/dut_sync/t_sync_out_reg_1_:D 1.027e-04
*END

*R_NET t_pout_addr2mem\[0\] 5.982e+00
*DRIVER snps_PD_SIPO__ISO_SIPO_OUT_snps_addr_0_ISO_SIPO_OUT:Y
*CELL LSUPENX1_HVT
*C2_R1_C1 2.991e+00 1.524e-04 2.991e+00 
*LOADS
*RC sync_add2mem/dut_sync/t_sync_out_reg_0_:D 3.562e-04
*END

*R_NET wr 8.489e+00
*DRIVER sipo_bit/wr_reg:Q
*CELL RSDFFARX2_RVT
*C2_R1_C1 4.244e+00 5.520e-05 4.244e+00 
*LOADS
*RC sipo_bit/U6:A1 3.635e-05
*RC sipo_bit/U22:A 3.468e-05
*RC sipo_bit/count_reg_2_:SI 1.263e-04
*RC sipo_bit/U7:A1 2.432e-05
*RC sipo_bit/U15:A1 2.154e-05
*RC sipo_bit/U35:A2 1.464e-05
*RC sipo_bit/U41:A4 3.582e-05
*RC snps_PD_SIPO__ISO_SIPO2MEM_OUT2_snps_wrISO_SIPO2MEM_OUT2:A 8.939e-05
*END

*R_NET pout_addr2mem\[3\] 1.085e+01
*DRIVER sync_add2mem/dut_sync/sync_out_reg_3_:Q
*CELL DFFARX2_HVT
*C2_R1_C1 5.424e+00 2.288e-04 5.424e+00 
*LOADS
*RC sync_add2mem/dut_sync/t_sync_out_reg_0_:SI 2.815e-05
*RC nibble_0:A2\[3\] 2.236e-04
*RC nibble_1:A2\[3\] 2.824e-04
*RC nibble_1:A1\[3\] 6.277e-04
*RC nibble_0:A1\[3\] 5.689e-04
*END

*R_NET pout_addr2mem\[2\] 1.170e+01
*DRIVER sync_add2mem/dut_sync/sync_out_reg_2_:Q
*CELL DFFARX2_HVT
*C2_R1_C1 5.850e+00 2.484e-04 5.850e+00 
*LOADS
*RC sync_data2mem/dut_sync/t_sync_out_reg_3_:SI 2.765e-04
*RC nibble_0:A2\[2\] 2.689e-04
*RC nibble_1:A2\[2\] 3.100e-04
*RC nibble_1:A1\[2\] 6.703e-04
*RC nibble_0:A1\[2\] 6.214e-04
*END

*R_NET pout_addr2mem\[1\] 1.197e+01
*DRIVER sync_add2mem/dut_sync/sync_out_reg_1_:Q
*CELL DFFARX2_HVT
*C2_R1_C1 5.984e+00 2.544e-04 5.984e+00 
*LOADS
*RC sync_add2mem/dut_sync/t_sync_out_reg_3_:SI 3.401e-05
*RC nibble_0:A2\[1\] 3.955e-04
*RC nibble_1:A2\[1\] 2.577e-04
*RC nibble_1:A1\[1\] 6.387e-04
*RC nibble_0:A1\[1\] 7.764e-04
*END

*R_NET pout_addr2mem\[0\] 1.313e+01
*DRIVER sync_add2mem/dut_sync/sync_out_reg_0_:Q
*CELL DFFARX2_HVT
*C2_R1_C1 6.565e+00 2.811e-04 6.565e+00 
*LOADS
*RC sync_add2mem/dut_sync/t_sync_out_reg_2_:SI 3.038e-04
*RC nibble_0:A2\[0\] 2.739e-04
*RC nibble_1:A2\[0\] 5.694e-04
*RC nibble_1:A1\[0\] 9.874e-04
*RC nibble_0:A1\[0\] 6.918e-04
*END

*R_NET pout2mem\[15\] 5.304e+00
*DRIVER sync_data2mem/dut_sync/sync_out_reg_15_:Q
*CELL DFFARX1_HVT
*C2_R1_C1 2.652e+00 1.304e-04 2.652e+00 
*LOADS
*RC nibble_1:I2\[3\] 2.306e-04
*RC sync_data2mem/dut_sync/t_sync_out_reg_13_:SI 1.391e-05
*END

*R_NET pout2mem\[14\] 3.137e+00
*DRIVER sync_data2mem/dut_sync/sync_out_reg_14_:Q
*CELL DFFARX1_HVT
*C2_R1_C1 1.568e+00 6.898e-05 1.568e+00 
*LOADS
*RC sync_data2mem/dut_sync/t_sync_out_reg_12_:SI 9.360e-05
*RC nibble_1:I2\[2\] 1.398e-05
*END

*R_NET pout2mem\[13\] 5.530e+00
*DRIVER sync_data2mem/dut_sync/sync_out_reg_13_:Q
*CELL DFFARX1_HVT
*C2_R1_C1 2.765e+00 1.362e-04 2.765e+00 
*LOADS
*RC sync_data2mem/dut_sync/t_sync_out_reg_11_:SI 8.143e-05
*RC nibble_1:I2\[1\] 2.399e-04
*END

*R_NET pout2mem\[12\] 4.551e+00
*DRIVER sync_data2mem/dut_sync/sync_out_reg_12_:Q
*CELL DFFARX1_HVT
*C2_R1_C1 2.275e+00 1.065e-04 2.275e+00 
*LOADS
*RC sync_data2mem/dut_sync/t_sync_out_reg_4_:SI 1.664e-04
*RC nibble_1:I2\[0\] 1.106e-04
*END

*R_NET pout2mem\[11\] 4.477e+00
*DRIVER sync_data2mem/dut_sync/sync_out_reg_11_:Q
*CELL DFFARX1_HVT
*C2_R1_C1 2.238e+00 1.073e-04 2.238e+00 
*LOADS
*RC sync_data2mem/dut_sync/t_sync_out_reg_9_:SI 1.957e-04
*RC nibble_1:I1\[3\] 1.142e-05
*END

*R_NET pout2mem\[10\] 3.079e+00
*DRIVER sync_data2mem/dut_sync/sync_out_reg_10_:Q
*CELL DFFARX1_HVT
*C2_R1_C1 1.539e+00 6.830e-05 1.539e+00 
*LOADS
*RC sync_data2mem/dut_sync/t_sync_out_reg_7_:SI 7.830e-05
*RC nibble_1:I1\[2\] 6.747e-05
*END

*R_NET pout2mem\[9\] 6.816e+00
*DRIVER sync_data2mem/dut_sync/sync_out_reg_9_:Q
*CELL DFFARX1_HVT
*C2_R1_C1 3.408e+00 1.681e-04 3.408e+00 
*LOADS
*RC hreset_sync/t_reset_sync_reg:SI 4.385e-04
*RC nibble_1:I1\[1\] 1.099e-04
*END

*R_NET pout2mem\[8\] 5.741e+00
*DRIVER sync_data2mem/dut_sync/sync_out_reg_8_:Q
*CELL DFFARX1_HVT
*C2_R1_C1 2.871e+00 1.429e-04 2.871e+00 
*LOADS
*RC sync_data2mem/dut_sync/t_sync_out_reg_1_:SI 2.227e-04
*RC nibble_1:I1\[0\] 2.240e-04
*END

*R_NET pout2mem\[7\] 2.172e+00
*DRIVER sync_data2mem/dut_sync/sync_out_reg_7_:Q
*CELL DFFARX1_HVT
*C2_R1_C1 1.086e+00 4.447e-05 1.086e+00 
*LOADS
*RC sync_data2mem/dut_sync/t_sync_out_reg_5_:SI 2.387e-05
*RC nibble_0:I2\[3\] 2.512e-05
*END

*R_NET pout2mem\[6\] 3.075e+00
*DRIVER sync_data2mem/dut_sync/sync_out_reg_6_:Q
*CELL DFFARX1_HVT
*C2_R1_C1 1.538e+00 6.843e-05 1.538e+00 
*LOADS
*RC sync_data2mem/dut_sync/t_sync_out_reg_2_:SI 7.917e-05
*RC nibble_0:I2\[2\] 1.054e-05
*END

*R_NET pout2mem\[5\] 2.495e+00
*DRIVER sync_data2mem/dut_sync/sync_out_reg_5_:Q
*CELL DFFARX1_HVT
*C2_R1_C1 1.248e+00 5.333e-05 1.248e+00 
*LOADS
*RC sync_data2mem/dut_sync/t_sync_out_reg_14_:SI 6.115e-05
*RC nibble_0:I2\[1\] 8.305e-06
*END

*R_NET pout2mem\[4\] 1.751e+00
*DRIVER sync_data2mem/dut_sync/sync_out_reg_4_:Q
*CELL DFFARX1_HVT
*C2_R1_C1 8.754e-01 3.320e-05 8.754e-01 
*LOADS
*RC sync_data2mem/dut_sync/t_sync_out_reg_6_:SI 1.451e-05
*RC nibble_0:I2\[0\] 1.571e-05
*END

*R_NET pout2mem\[3\] 5.892e+00
*DRIVER sync_data2mem/dut_sync/sync_out_reg_3_:Q
*CELL DFFARX1_HVT
*C2_R1_C1 2.946e+00 1.462e-04 2.946e+00 
*LOADS
*RC sync_data2mem/dut_sync/t_sync_out_reg_15_:SI 1.857e-04
*RC nibble_0:I1\[3\] 1.286e-04
*END

*R_NET pout2mem\[2\] 6.008e+00
*DRIVER sync_data2mem/dut_sync/sync_out_reg_2_:Q
*CELL DFFARX1_HVT
*C2_R1_C1 3.004e+00 1.465e-04 3.004e+00 
*LOADS
*RC sync_add2mem/dut_sync/t_sync_out_reg_1_:SI 3.271e-04
*RC nibble_0:I1\[2\] 8.720e-05
*END

*R_NET pout2mem\[1\] 3.685e+00
*DRIVER sync_data2mem/dut_sync/sync_out_reg_1_:Q
*CELL DFFARX1_HVT
*C2_R1_C1 1.843e+00 8.552e-05 1.843e+00 
*LOADS
*RC sync_data2mem/dut_sync/t_sync_out_reg_0_:SI 1.041e-04
*RC nibble_0:I1\[1\] 7.684e-05
*END

*R_NET pout2mem\[0\] 4.526e+00
*DRIVER sync_data2mem/dut_sync/sync_out_reg_0_:Q
*CELL DFFARX1_HVT
*C2_R1_C1 2.263e+00 1.089e-04 2.263e+00 
*LOADS
*RC sync_data2mem/dut_sync/t_sync_out_reg_10_:SI 1.463e-04
*RC nibble_0:I1\[0\] 4.473e-05
*END

*R_NET t_din2piso\[15\] 2.221e+00
*DRIVER nibble_1:O2\[3\]
*CELL SRAM2RW16x4
*C2_R1_C1 1.110e+00 4.445e-05 1.110e+00 
*LOADS
*RC U13:A 4.969e-05
*END

*R_NET t_din2piso\[14\] 1.463e+00
*DRIVER nibble_1:O2\[2\]
*CELL SRAM2RW16x4
*C2_R1_C1 7.315e-01 2.468e-05 7.315e-01 
*LOADS
*RC U14:A 2.136e-05
*END

*R_NET t_din2piso\[13\] 5.027e+00
*DRIVER nibble_1:O2\[1\]
*CELL SRAM2RW16x4
*C2_R1_C1 2.514e+00 1.202e-04 2.514e+00 
*LOADS
*RC U15:A 2.469e-04
*END

*R_NET t_din2piso\[12\] 1.049e+00
*DRIVER nibble_1:O2\[0\]
*CELL SRAM2RW16x4
*C2_R1_C1 5.245e-01 1.290e-05 5.245e-01 
*LOADS
*RC U16:A 9.380e-06
*END

*R_NET t_din2piso\[11\] 4.780e+00
*DRIVER nibble_1:O1\[3\]
*CELL SRAM2RW16x4
*C2_R1_C1 2.390e+00 1.138e-04 2.390e+00 
*LOADS
*RC U17:A 2.242e-04
*END

*R_NET t_din2piso\[10\] 2.371e+00
*DRIVER nibble_1:O1\[2\]
*CELL SRAM2RW16x4
*C2_R1_C1 1.185e+00 4.833e-05 1.185e+00 
*LOADS
*RC U18:A 5.645e-05
*END

*R_NET t_din2piso\[9\] 1.849e+00
*DRIVER nibble_1:O1\[1\]
*CELL SRAM2RW16x4
*C2_R1_C1 9.246e-01 3.479e-05 9.246e-01 
*LOADS
*RC U19:A 3.458e-05
*END

*R_NET t_din2piso\[8\] 4.585e+00
*DRIVER nibble_1:O1\[0\]
*CELL SRAM2RW16x4
*C2_R1_C1 2.292e+00 1.087e-04 2.292e+00 
*LOADS
*RC U20:A 2.071e-04
*END

*R_NET t_din2piso\[7\] 6.375e+00
*DRIVER nibble_0:O2\[3\]
*CELL SRAM2RW16x4
*C2_R1_C1 3.188e+00 1.592e-04 3.188e+00 
*LOADS
*RC U21:A 3.984e-04
*END

*R_NET t_din2piso\[6\] 2.201e+00
*DRIVER nibble_0:O2\[2\]
*CELL SRAM2RW16x4
*C2_R1_C1 1.100e+00 4.233e-05 1.100e+00 
*LOADS
*RC U22:A 4.703e-05
*END

*R_NET t_din2piso\[5\] 1.248e+00
*DRIVER nibble_0:O2\[1\]
*CELL SRAM2RW16x4
*C2_R1_C1 6.239e-01 1.756e-05 6.239e-01 
*LOADS
*RC U23:A 1.393e-05
*END

*R_NET t_din2piso\[4\] 7.286e-01
*DRIVER nibble_0:O2\[0\]
*CELL SRAM2RW16x4
*C2_R1_C1 3.643e-01 4.107e-06 3.643e-01 
*LOADS
*RC U24:A 2.549e-06
*END

*R_NET t_din2piso\[3\] 3.459e+00
*DRIVER nibble_0:O1\[3\]
*CELL SRAM2RW16x4
*C2_R1_C1 1.730e+00 7.678e-05 1.730e+00 
*LOADS
*RC U25:A 1.175e-04
*END

*R_NET t_din2piso\[2\] 1.276e+00
*DRIVER nibble_0:O1\[2\]
*CELL SRAM2RW16x4
*C2_R1_C1 6.378e-01 1.851e-05 6.378e-01 
*LOADS
*RC U26:A 1.486e-05
*END

*R_NET t_din2piso\[1\] 3.149e+00
*DRIVER nibble_0:O1\[1\]
*CELL SRAM2RW16x4
*C2_R1_C1 1.575e+00 6.872e-05 1.575e+00 
*LOADS
*RC U27:A 9.807e-05
*END

*R_NET t_din2piso\[0\] 3.382e+00
*DRIVER nibble_0:O1\[0\]
*CELL SRAM2RW16x4
*C2_R1_C1 1.691e+00 7.476e-05 1.691e+00 
*LOADS
*RC U28:A 1.125e-04
*END

*R_NET din2piso\[15\] 5.024e+00
*DRIVER sync_datafrommem/dut_sync/sync_out_reg_15_:Q
*CELL DFFARX1_HVT
*C2_R1_C1 2.512e+00 1.075e-04 2.512e+00 
*LOADS
*RC piso_bit/din_15__UPF_LS:A 2.714e-05
*RC sync_datafrommem/dut_sync/t_sync_out_reg_12_:SI 2.161e-04
*END

*R_NET din2piso\[14\] 3.401e+00
*DRIVER sync_datafrommem/dut_sync/sync_out_reg_14_:Q
*CELL DFFARX1_HVT
*C2_R1_C1 1.701e+00 6.193e-05 1.701e+00 
*LOADS
*RC piso_bit/din_14__UPF_LS:A 9.361e-06
*RC sync_datafrommem/dut_sync/t_sync_out_reg_5_:SI 8.738e-05
*END

*R_NET din2piso\[13\] 3.555e+00
*DRIVER sync_datafrommem/dut_sync/sync_out_reg_13_:Q
*CELL DFFARX1_HVT
*C2_R1_C1 1.778e+00 6.519e-05 1.778e+00 
*LOADS
*RC piso_bit/din_13__UPF_LS:A 1.164e-05
*RC sync_datafrommem/dut_sync/t_sync_out_reg_11_:SI 9.471e-05
*END

*R_NET din2piso\[12\] 1.809e+00
*DRIVER sync_datafrommem/dut_sync/sync_out_reg_12_:Q
*CELL DFFARX1_HVT
*C2_R1_C1 9.043e-01 1.932e-05 9.043e-01 
*LOADS
*RC piso_bit/din_12__UPF_LS:A 2.082e-06
*RC sync_datafrommem/dut_sync/t_sync_out_reg_4_:SI 1.684e-05
*END

*R_NET din2piso\[11\] 5.919e+00
*DRIVER sync_datafrommem/dut_sync/sync_out_reg_11_:Q
*CELL DFFARX1_HVT
*C2_R1_C1 2.959e+00 1.272e-04 2.959e+00 
*LOADS
*RC lreset_sync/t_reset_sync_reg:SI 2.938e-04
*RC piso_bit/din_11__UPF_LS:A 1.678e-05
*END

*R_NET din2piso\[10\] 6.224e+00
*DRIVER sync_datafrommem/dut_sync/sync_out_reg_10_:Q
*CELL DFFARX1_HVT
*C2_R1_C1 3.112e+00 1.420e-04 3.112e+00 
*LOADS
*RC piso_bit/din_10__UPF_LS:A 5.684e-05
*RC sync_datafrommem/dut_sync/t_sync_out_reg_8_:SI 3.097e-04
*END

*R_NET din2piso\[9\] 7.221e+00
*DRIVER sync_datafrommem/dut_sync/sync_out_reg_9_:Q
*CELL DFFARX1_HVT
*C2_R1_C1 3.610e+00 1.654e-04 3.610e+00 
*LOADS
*RC piso_bit/din_9__UPF_LS:A 3.514e-05
*RC sync_datafrommem/dut_sync/t_sync_out_reg_10_:SI 4.536e-04
*END

*R_NET din2piso\[8\] 8.813e+00
*DRIVER sync_datafrommem/dut_sync/sync_out_reg_8_:Q
*CELL DFFARX2_HVT
*C2_R1_C1 4.407e+00 2.083e-04 4.407e+00 
*LOADS
*RC piso_bit/din_8__UPF_LS:A 7.769e-05
*RC sync_datafrommem/dut_sync/t_sync_out_reg_13_:SI 6.821e-04
*END

*R_NET din2piso\[7\] 2.994e+00
*DRIVER sync_datafrommem/dut_sync/sync_out_reg_7_:Q
*CELL DFFARX1_HVT
*C2_R1_C1 1.497e+00 5.168e-05 1.497e+00 
*LOADS
*RC piso_bit/din_7__UPF_LS:A 2.454e-05
*RC sync_datafrommem/dut_sync/t_sync_out_reg_15_:SI 5.769e-05
*END

*R_NET din2piso\[6\] 4.235e+00
*DRIVER sync_datafrommem/dut_sync/sync_out_reg_6_:Q
*CELL DFFARX1_HVT
*C2_R1_C1 2.117e+00 8.448e-05 2.117e+00 
*LOADS
*RC piso_bit/din_6__UPF_LS:A 4.038e-05
*RC sync_datafrommem/dut_sync/t_sync_out_reg_7_:SI 1.477e-04
*END

*R_NET din2piso\[5\] 1.647e+00
*DRIVER sync_datafrommem/dut_sync/sync_out_reg_5_:Q
*CELL DFFARX1_HVT
*C2_R1_C1 8.234e-01 1.472e-05 8.234e-01 
*LOADS
*RC piso_bit/din_5__UPF_LS:A 7.634e-06
*RC sync_datafrommem/dut_sync/t_sync_out_reg_6_:SI 8.165e-06
*END

*R_NET din2piso\[4\] 6.340e+00
*DRIVER sync_datafrommem/dut_sync/sync_out_reg_4_:Q
*CELL DFFARX1_HVT
*C2_R1_C1 3.170e+00 1.422e-04 3.170e+00 
*LOADS
*RC piso_bit/din_4__UPF_LS:A 2.560e-05
*RC sync_datafrommem/dut_sync/t_sync_out_reg_1_:SI 3.452e-04
*END

*R_NET din2piso\[3\] 5.022e+00
*DRIVER sync_datafrommem/dut_sync/sync_out_reg_3_:Q
*CELL DFFARX1_HVT
*C2_R1_C1 2.511e+00 1.070e-04 2.511e+00 
*LOADS
*RC piso_bit/din_3__UPF_LS:A 1.427e-05
*RC sync_datafrommem/dut_sync/t_sync_out_reg_9_:SI 2.152e-04
*END

*R_NET din2piso\[2\] 4.660e+00
*DRIVER sync_datafrommem/dut_sync/sync_out_reg_2_:Q
*CELL DFFARX1_HVT
*C2_R1_C1 2.330e+00 9.642e-05 2.330e+00 
*LOADS
*RC piso_bit/din_2__UPF_LS:A 2.417e-05
*RC sync_datafrommem/dut_sync/t_sync_out_reg_0_:SI 1.822e-04
*END

*R_NET din2piso\[1\] 5.092e+00
*DRIVER sync_datafrommem/dut_sync/sync_out_reg_1_:Q
*CELL DFFARX1_HVT
*C2_R1_C1 2.546e+00 1.103e-04 2.546e+00 
*LOADS
*RC piso_bit/din_1__UPF_LS:A 2.014e-05
*RC sync_datafrommem/dut_sync/t_sync_out_reg_2_:SI 2.229e-04
*END

*R_NET din2piso\[0\] 2.461e+00
*DRIVER sync_datafrommem/dut_sync/sync_out_reg_0_:Q
*CELL DFFARX1_HVT
*C2_R1_C1 1.231e+00 4.269e-05 1.231e+00 
*LOADS
*RC piso_bit/din_0__UPF_LS:A 1.246e-05
*RC sync_datafrommem/dut_sync/t_sync_out_reg_3_:SI 4.547e-05
*END

*R_NET n_6_net_ 7.061e+00
*DRIVER U10:Y
*CELL INVX1_HVT
*C2_R1_C1 3.531e+00 1.616e-04 3.531e+00 
*LOADS
*RC nibble_0:WEB2 1.727e-05
*RC nibble_0:WEB1 2.434e-04
*RC nibble_1:WEB2 1.428e-04
*RC nibble_1:WEB1 3.689e-04
*END

*R_NET load_data_from_memory 1.920e+00
*DRIVER load_data_from_memory_reg:Q
*CELL DFFARX1_HVT
*C2_R1_C1 9.598e-01 2.039e-05 9.598e-01 
*LOADS
*RC piso_bit/load_UPF_LS:A 2.449e-06
*RC sync_datafrommem/dut_sync/t_sync_out_reg_14_:SI 1.794e-05
*END

*R_NET temp_0 1.216e+00
*DRIVER temp_0_reg:Q
*CELL SDFFARX1_RVT
*C2_R1_C1 6.078e-01 1.851e-05 6.078e-01 
*LOADS
*RC temp_1_reg:D 1.429e-05
*END

*R_NET temp_1 8.887e-01
*DRIVER temp_1_reg:Q
*CELL DFFARX1_HVT
*C2_R1_C1 4.443e-01 8.867e-06 4.443e-01 
*LOADS
*RC temp_2_reg:D 5.877e-06
*END

*R_NET temp_2 1.052e+00
*DRIVER temp_2_reg:Q
*CELL DFFARX1_HVT
*C2_R1_C1 5.260e-01 1.335e-05 5.260e-01 
*LOADS
*RC load_data_from_memory_reg:D 9.576e-06
*END

*R_NET net73 3.866e+00
*DRIVER sipo_bit/pout_reg_15_:Q
*CELL RSDFFARX1_RVT
*C2_R1_C1 1.933e+00 5.219e-05 1.933e+00 
*LOADS
*RC sipo_bit/pout_reg_4_:SI 5.778e-05
*RC snps_PD_SIPO__ISO_SIPO_OUT_snps_pout_15_ISO_SIPO_OUT:A 6.014e-05
*END

*R_NET net74 3.271e+00
*DRIVER sipo_bit/pout_reg_14_:Q
*CELL RSDFFARX1_RVT
*C2_R1_C1 1.635e+00 3.711e-05 1.635e+00 
*LOADS
*RC sipo_bit/addr_reg_1_:SI 2.855e-05
*RC snps_PD_SIPO__ISO_SIPO_OUT_snps_pout_14_ISO_SIPO_OUT:A 3.478e-05
*END

*R_NET net75 4.332e+00
*DRIVER sipo_bit/pout_reg_13_:Q
*CELL RSDFFARX1_RVT
*C2_R1_C1 2.166e+00 6.436e-05 2.166e+00 
*LOADS
*RC sipo_bit/pout_reg_15_:SI 8.318e-05
*RC snps_PD_SIPO__ISO_SIPO_OUT_snps_pout_13_ISO_SIPO_OUT:A 6.976e-05
*END

*R_NET net76 2.608e+00
*DRIVER sipo_bit/pout_reg_12_:Q
*CELL RSDFFARX1_RVT
*C2_R1_C1 1.304e+00 1.894e-05 1.304e+00 
*LOADS
*RC sipo_bit/tmp_reg_9_:SI 1.582e-05
*RC snps_PD_SIPO__ISO_SIPO_OUT_snps_pout_12_ISO_SIPO_OUT:A 1.064e-05
*END

*R_NET net77 3.864e+00
*DRIVER sipo_bit/pout_reg_11_:Q
*CELL RSDFFARX1_RVT
*C2_R1_C1 1.932e+00 5.216e-05 1.932e+00 
*LOADS
*RC sipo_bit/pout_reg_13_:SI 7.078e-05
*RC snps_PD_SIPO__ISO_SIPO_OUT_snps_pout_11_ISO_SIPO_OUT:A 4.760e-05
*END

*R_NET net78 4.176e+00
*DRIVER sipo_bit/pout_reg_10_:Q
*CELL RSDFFARX1_RVT
*C2_R1_C1 2.088e+00 6.107e-05 2.088e+00 
*LOADS
*RC sipo_bit/pout_reg_0_:SI 8.911e-05
*RC snps_PD_SIPO__ISO_SIPO_OUT_snps_pout_10_ISO_SIPO_OUT:A 2.273e-05
*END

*R_NET net79 3.495e+00
*DRIVER sipo_bit/pout_reg_9_:Q
*CELL RSDFFARX1_RVT
*C2_R1_C1 1.747e+00 1.957e-05 1.747e+00 
*LOADS
*RC snps_PD_SIPO__ISO_SIPO_OUT_snps_scan_outISO_SIPO_OUT:A 3.108e-05
*RC snps_PD_SIPO__ISO_SIPO_OUT_snps_pout_9_ISO_SIPO_OUT:A 1.983e-05
*END

*R_NET net80 4.520e+00
*DRIVER sipo_bit/pout_reg_8_:Q
*CELL RSDFFARX1_RVT
*C2_R1_C1 2.260e+00 7.075e-05 2.260e+00 
*LOADS
*RC sipo_bit/tmp_reg_7_:SI 8.393e-05
*RC snps_PD_SIPO__ISO_SIPO_OUT_snps_pout_8_ISO_SIPO_OUT:A 6.194e-05
*END

*R_NET net81 3.814e+00
*DRIVER sipo_bit/pout_reg_7_:Q
*CELL RSDFFARX1_RVT
*C2_R1_C1 1.907e+00 5.280e-05 1.907e+00 
*LOADS
*RC sipo_bit/wr_1_reg:SI 3.878e-05
*RC snps_PD_SIPO__ISO_SIPO_OUT_snps_pout_7_ISO_SIPO_OUT:A 8.428e-05
*END

*R_NET net82 3.273e+00
*DRIVER sipo_bit/pout_reg_6_:Q
*CELL RSDFFARX1_RVT
*C2_R1_C1 1.636e+00 3.699e-05 1.636e+00 
*LOADS
*RC sipo_bit/pout_reg_3_:SI 2.065e-05
*RC snps_PD_SIPO__ISO_SIPO_OUT_snps_pout_6_ISO_SIPO_OUT:A 6.493e-05
*END

*R_NET net83 3.569e+00
*DRIVER sipo_bit/pout_reg_5_:Q
*CELL RSDFFARX1_RVT
*C2_R1_C1 1.784e+00 4.470e-05 1.784e+00 
*LOADS
*RC sipo_bit/pout_reg_14_:SI 5.267e-05
*RC snps_PD_SIPO__ISO_SIPO_OUT_snps_pout_5_ISO_SIPO_OUT:A 2.202e-05
*END

*R_NET net84 3.185e+00
*DRIVER sipo_bit/pout_reg_4_:Q
*CELL RSDFFARX1_RVT
*C2_R1_C1 1.592e+00 3.478e-05 1.592e+00 
*LOADS
*RC sipo_bit/count_reg_1_:SI 2.532e-05
*RC snps_PD_SIPO__ISO_SIPO_OUT_snps_pout_4_ISO_SIPO_OUT:A 5.417e-05
*END

*R_NET net85 4.046e+00
*DRIVER sipo_bit/pout_reg_3_:Q
*CELL RSDFFARX1_RVT
*C2_R1_C1 2.023e+00 5.685e-05 2.023e+00 
*LOADS
*RC sipo_bit/rd_addr_reg_1_:SI 4.760e-05
*RC snps_PD_SIPO__ISO_SIPO_OUT_snps_pout_3_ISO_SIPO_OUT:A 6.550e-05
*END

*R_NET net86 5.530e+00
*DRIVER sipo_bit/pout_reg_2_:Q
*CELL RSDFFARX1_RVT
*C2_R1_C1 2.765e+00 9.809e-05 2.765e+00 
*LOADS
*RC sipo_bit/rd_reg:SI 1.643e-04
*RC snps_PD_SIPO__ISO_SIPO_OUT_snps_pout_2_ISO_SIPO_OUT:A 6.389e-05
*END

*R_NET net87 3.410e+00
*DRIVER sipo_bit/pout_reg_1_:Q
*CELL RSDFFARX1_RVT
*C2_R1_C1 1.705e+00 4.163e-05 1.705e+00 
*LOADS
*RC sipo_bit/tmp_reg_10_:SI 4.759e-05
*RC snps_PD_SIPO__ISO_SIPO_OUT_snps_pout_1_ISO_SIPO_OUT:A 1.969e-05
*END

*R_NET net88 5.865e+00
*DRIVER sipo_bit/pout_reg_0_:Q
*CELL RSDFFARX1_RVT
*C2_R1_C1 2.932e+00 1.084e-04 2.932e+00 
*LOADS
*RC sipo_bit/pout_reg_12_:SI 2.272e-04
*RC snps_PD_SIPO__ISO_SIPO_OUT_snps_pout_0_ISO_SIPO_OUT:A 2.771e-05
*END

*R_NET net89 5.517e+00
*DRIVER sipo_bit/addr_reg_3_:Q
*CELL RSDFFARX1_RVT
*C2_R1_C1 2.759e+00 9.513e-05 2.759e+00 
*LOADS
*RC sipo_bit/wr_addr_reg_3_:SI 1.747e-04
*RC snps_PD_SIPO__ISO_SIPO_OUT_snps_addr_3_ISO_SIPO_OUT:A 4.197e-05
*END

*R_NET net90 4.268e+00
*DRIVER sipo_bit/addr_reg_2_:Q
*CELL RSDFFARX1_RVT
*C2_R1_C1 2.134e+00 6.289e-05 2.134e+00 
*LOADS
*RC sipo_bit/pout_reg_1_:SI 9.156e-05
*RC snps_PD_SIPO__ISO_SIPO_OUT_snps_addr_2_ISO_SIPO_OUT:A 3.813e-05
*END

*R_NET net91 5.473e+00
*DRIVER sipo_bit/addr_reg_1_:Q
*CELL RSDFFARX1_RVT
*C2_R1_C1 2.736e+00 9.748e-05 2.736e+00 
*LOADS
*RC sipo_bit/pout_reg_6_:SI 1.898e-04
*RC snps_PD_SIPO__ISO_SIPO_OUT_snps_addr_1_ISO_SIPO_OUT:A 3.593e-05
*END

*R_NET net92 4.044e+00
*DRIVER sipo_bit/addr_reg_0_:Q
*CELL RSDFFARX1_RVT
*C2_R1_C1 2.022e+00 5.691e-05 2.022e+00 
*LOADS
*RC sipo_bit/pout_reg_5_:SI 6.805e-05
*RC snps_PD_SIPO__ISO_SIPO_OUT_snps_addr_0_ISO_SIPO_OUT:A 3.809e-05
*END

*R_NET net93 1.325e+00
*DRIVER snps_PD_SIPO__ISO_SIPO2MEM_OUT2_snps_wrISO_SIPO2MEM_OUT2:Y
*CELL LSUPENX1_HVT
*C2_R1_C1 6.623e-01 2.075e-05 6.623e-01 
*LOADS
*RC U30:A 1.700e-05
*END

*R_NET n5 5.941e+00
*DRIVER U13:Y
*CELL NBUFFX2_HVT
*C2_R1_C1 2.970e+00 1.500e-04 2.970e+00 
*LOADS
*RC sync_datafrommem/dut_sync/t_sync_out_reg_15_:D 3.484e-04
*END

*R_NET n6 4.563e+00
*DRIVER U14:Y
*CELL NBUFFX2_HVT
*C2_R1_C1 2.282e+00 1.111e-04 2.282e+00 
*LOADS
*RC sync_datafrommem/dut_sync/t_sync_out_reg_14_:D 2.070e-04
*END

*R_NET n7 1.470e+00
*DRIVER U15:Y
*CELL NBUFFX2_HVT
*C2_R1_C1 7.351e-01 2.646e-05 7.351e-01 
*LOADS
*RC sync_datafrommem/dut_sync/t_sync_out_reg_13_:D 2.204e-05
*END

*R_NET n8 4.524e+00
*DRIVER U16:Y
*CELL NBUFFX2_HVT
*C2_R1_C1 2.262e+00 1.111e-04 2.262e+00 
*LOADS
*RC sync_datafrommem/dut_sync/t_sync_out_reg_12_:D 2.055e-04
*END

*R_NET n9 1.868e+00
*DRIVER U17:Y
*CELL NBUFFX2_HVT
*C2_R1_C1 9.339e-01 3.779e-05 9.339e-01 
*LOADS
*RC sync_datafrommem/dut_sync/t_sync_out_reg_11_:D 3.648e-05
*END

*R_NET n10 3.651e+00
*DRIVER U18:Y
*CELL NBUFFX2_HVT
*C2_R1_C1 1.825e+00 8.744e-05 1.825e+00 
*LOADS
*RC sync_datafrommem/dut_sync/t_sync_out_reg_10_:D 1.364e-04
*END

*R_NET n11 3.619e+00
*DRIVER U19:Y
*CELL NBUFFX2_HVT
*C2_R1_C1 1.810e+00 8.670e-05 1.810e+00 
*LOADS
*RC sync_datafrommem/dut_sync/t_sync_out_reg_9_:D 1.343e-04
*END

*R_NET n12 8.634e-01
*DRIVER U20:Y
*CELL NBUFFX2_HVT
*C2_R1_C1 4.317e-01 9.722e-06 4.317e-01 
*LOADS