*SPEF "IEEE 1481-1999"
*DESIGN "bit_top"
*DATE "Mon Aug 21 17:22:30 2017"
*VENDOR "SYNOPSYS INC"
*PROGRAM "Synopsys Design Compiler cmos"
*VERSION "M-2016.12-SP2"
*DESIGN_FLOW "SYNTHESIS"
*DIVIDER /
*DELIMITER :
*BUS_DELIMITER []
*T_UNIT 1.0 NS
*C_UNIT 0.0010 PF
*R_UNIT 1000.0 KOHM
*L_UNIT 1.0 HENRY

*PORTS

hclk I *L 0.000e+00 *S 0.000e+00 0.000e+00 
lclk I *L 0.000e+00 *S 0.000e+00 0.000e+00 
reset I *L 0.000e+00 *S 0.000e+00 0.000e+00 
data_in_serial I *L 0.000e+00 *S 0.000e+00 0.000e+00 
data_valid I *L 0.000e+00 *S 0.000e+00 0.000e+00 
memory_sleep I *L 0.000e+00 *S 0.000e+00 0.000e+00 
shut_down_signals\[1\] I *L 0.000e+00 *S 0.000e+00 0.000e+00 
shut_down_signals\[0\] I *L 0.000e+00 *S 0.000e+00 0.000e+00 
isolation_signals\[1\] I *L 0.000e+00 *S 0.000e+00 0.000e+00 
isolation_signals\[0\] I *L 0.000e+00 *S 0.000e+00 0.000e+00 
retention_signals\[1\] I *L 0.000e+00 *S 0.000e+00 0.000e+00 
retention_signals\[0\] I *L 0.000e+00 *S 0.000e+00 0.000e+00 
scan_enable I *L 0.000e+00 *S 0.000e+00 0.000e+00 
sipo_scan_in I *L 0.000e+00 *S 0.000e+00 0.000e+00 
piso_scan_in I *L 0.000e+00 *S 0.000e+00 0.000e+00 
hv_scan_in I *L 0.000e+00 *S 0.000e+00 0.000e+00 
lv_scan_in I *L 0.000e+00 *S 0.000e+00 0.000e+00 
sipo_scan_out O *L 0.000e+00 *S 3.983e-02 5.025e-02 
piso_scan_out O *L 0.000e+00 *S 2.492e-02 2.924e-02 
hv_scan_out O *L 0.000e+00 *S 2.757e-02 3.073e-02 
lv_scan_out O *L 0.000e+00 *S 6.131e-01 1.280e+00 
sout\[1\] O *L 0.000e+00 *S 5.288e-02 6.009e-02 
sout\[0\] O *L 0.000e+00 *S 4.434e-02 4.978e-02 
memory_address\[3\] O *L 0.000e+00 *S 6.471e-02 7.590e-02 
memory_address\[2\] O *L 0.000e+00 *S 6.713e-02 8.011e-02 
memory_address\[1\] O *L 0.000e+00 *S 8.531e-02 8.194e-02 
memory_address\[0\] O *L 0.000e+00 *S 7.982e-02 9.688e-02 
memory_ack O *L 0.000e+00 *S 2.912e-02 3.498e-02 
PG_ack_signals\[3\] O *L 0.000e+00 *S 0.000e+00 0.000e+00 
PG_ack_signals\[2\] O *L 0.000e+00 *S 0.000e+00 0.000e+00 
PG_ack_signals\[1\] O *L 0.000e+00 *S 5.772e-02 6.594e-02 
PG_ack_signals\[0\] O *L 0.000e+00 *S 5.931e-02 6.786e-02 

*R_NET N0 1.649e+01
*DRIVER B_0:Y
*CELL NBUFFX4_HVT
*C2_R1_C1 8.246e+00 2.552e-04 8.246e+00 
*LOADS
*RC U80:A1 8.708e-04
*RC U82:A1 1.122e-03
*RC U79:A4 1.096e-03
*RC U81:A1 8.228e-04
*END

*R_NET reset 7.422e+02
*DRIVER reset
*CELL NULL
*C2_R1_C1 3.711e+02 4.468e-03 3.711e+02 
*LOADS
*RC slice_2/hreset_sync/reset_sync_reg:RSTB 4.152e-01
*RC slice_2/hreset_sync/t_reset_sync_reg:RSTB 4.185e-01
*RC slice_2/lreset_sync/reset_sync_reg:RSTB 4.168e-01
*RC slice_2/lreset_sync/t_reset_sync_reg:RSTB 4.136e-01
*RC slice_6/hreset_sync/reset_sync_reg:RSTB 3.368e-01
*RC slice_6/hreset_sync/t_reset_sync_reg:RSTB 3.401e-01
*RC slice_6/lreset_sync/reset_sync_reg:RSTB 3.384e-01
*RC slice_6/lreset_sync/t_reset_sync_reg:RSTB 3.352e-01
*RC slice_7/hreset_sync/reset_sync_reg:RSTB 2.435e-01
*RC slice_7/hreset_sync/t_reset_sync_reg:RSTB 2.468e-01
*RC slice_7/lreset_sync/reset_sync_reg:RSTB 2.451e-01
*RC slice_7/lreset_sync/t_reset_sync_reg:RSTB 2.419e-01
*RC slice_4/hreset_sync/reset_sync_reg:RSTB 3.960e-01
*RC slice_4/hreset_sync/t_reset_sync_reg:RSTB 3.994e-01
*RC slice_4/lreset_sync/reset_sync_reg:RSTB 3.976e-01
*RC slice_4/lreset_sync/t_reset_sync_reg:RSTB 3.944e-01
*RC slice_21/hreset_sync/reset_sync_reg:RSTB 2.218e-01
*RC slice_21/hreset_sync/t_reset_sync_reg:RSTB 2.251e-01
*RC slice_21/lreset_sync/reset_sync_reg:RSTB 2.233e-01
*RC slice_21/lreset_sync/t_reset_sync_reg:RSTB 2.202e-01
*RC slice_23/hreset_sync/reset_sync_reg:RSTB 1.625e-01
*RC slice_23/hreset_sync/t_reset_sync_reg:RSTB 1.659e-01
*RC slice_23/lreset_sync/reset_sync_reg:RSTB 1.641e-01
*RC slice_23/lreset_sync/t_reset_sync_reg:RSTB 1.609e-01
*RC slice_8/hreset_sync/reset_sync_reg:RSTB 2.878e-01
*RC slice_8/hreset_sync/t_reset_sync_reg:RSTB 2.911e-01
*RC slice_8/lreset_sync/reset_sync_reg:RSTB 2.894e-01
*RC slice_8/lreset_sync/t_reset_sync_reg:RSTB 2.862e-01
*RC slice_11/hreset_sync/reset_sync_reg:RSTB 1.353e-01
*RC slice_11/hreset_sync/t_reset_sync_reg:RSTB 1.386e-01
*RC slice_11/lreset_sync/reset_sync_reg:RSTB 1.369e-01
*RC slice_11/lreset_sync/t_reset_sync_reg:RSTB 1.337e-01
*RC slice_13/hreset_sync/reset_sync_reg:RSTB 1.161e-01
*RC slice_13/hreset_sync/t_reset_sync_reg:RSTB 1.194e-01
*RC slice_13/lreset_sync/reset_sync_reg:RSTB 1.177e-01
*RC slice_13/lreset_sync/t_reset_sync_reg:RSTB 1.145e-01
*RC slice_14/hreset_sync/reset_sync_reg:RSTB 1.502e-01
*RC slice_14/hreset_sync/t_reset_sync_reg:RSTB 1.535e-01
*RC slice_14/lreset_sync/reset_sync_reg:RSTB 1.518e-01
*RC slice_14/lreset_sync/t_reset_sync_reg:RSTB 1.486e-01
*RC slice_15/hreset_sync/reset_sync_reg:RSTB 5.689e-02
*RC slice_15/hreset_sync/t_reset_sync_reg:RSTB 6.022e-02
*RC slice_15/lreset_sync/reset_sync_reg:RSTB 5.845e-02
*RC slice_15/lreset_sync/t_reset_sync_reg:RSTB 5.530e-02
*RC slice_22/hreset_sync/reset_sync_reg:RSTB 6.924e-02
*RC slice_22/hreset_sync/t_reset_sync_reg:RSTB 7.256e-02
*RC slice_22/lreset_sync/reset_sync_reg:RSTB 7.080e-02
*RC slice_22/lreset_sync/t_reset_sync_reg:RSTB 6.764e-02
*RC slice_17/hreset_sync/reset_sync_reg:RSTB 3.002e-01
*RC slice_17/hreset_sync/t_reset_sync_reg:RSTB 3.035e-01
*RC slice_17/lreset_sync/reset_sync_reg:RSTB 3.017e-01
*RC slice_17/lreset_sync/t_reset_sync_reg:RSTB 2.986e-01
*RC slice_19/hreset_sync/reset_sync_reg:RSTB 2.410e-01
*RC slice_19/hreset_sync/t_reset_sync_reg:RSTB 2.443e-01
*RC slice_19/lreset_sync/reset_sync_reg:RSTB 2.425e-01
*RC slice_19/lreset_sync/t_reset_sync_reg:RSTB 2.394e-01
*RC slice_16/hreset_sync/reset_sync_reg:RSTB 2.069e-01
*RC slice_16/hreset_sync/t_reset_sync_reg:RSTB 2.102e-01
*RC slice_16/lreset_sync/reset_sync_reg:RSTB 2.084e-01
*RC slice_16/lreset_sync/t_reset_sync_reg:RSTB 2.053e-01
*RC U299:A 3.149e-01
*RC U300:A 2.115e-01
*RC U295:A 1.028e-01
*RC U298:A 1.600e-01
*RC slice_9/hreset_sync/reset_sync_reg:RSTB 1.945e-01
*RC slice_9/hreset_sync/t_reset_sync_reg:RSTB 1.978e-01
*RC slice_9/lreset_sync/reset_sync_reg:RSTB 1.961e-01
*RC slice_9/lreset_sync/t_reset_sync_reg:RSTB 1.929e-01
*END

*R_NET data_in_serial 4.330e+00
*DRIVER data_in_serial
*CELL NULL
*C2_R1_C1 2.165e+00 6.540e-05 2.165e+00 
*LOADS
*RC sipo_slice_first/sin_UPF_LS:A 1.235e-04
*RC sipo_slice_last/sin_UPF_LS:A 1.063e-04
*END

*R_NET data_valid 4.975e+03
*DRIVER data_valid
*CELL NULL
*C2_R1_C1 2.488e+03 8.142e-03 2.488e+03 
*LOADS
*RC slice_31/sipo_bit/U6:A2 4.943e+00
*RC slice_31/sipo_bit/U54:A1 4.830e+00
*RC slice_31/sipo_bit/U53:A1 4.851e+00
*RC slice_31/sipo_bit/U78:A 4.871e+00
*RC slice_31/sipo_bit/U66:A1 4.860e+00
*RC slice_31/sipo_bit/U51:A4 4.872e+00
*RC slice_31/sipo_bit/U44:A2 4.866e+00
*RC slice_31/sipo_bit/U48:A1 4.873e+00
*RC slice_31/sipo_bit/U64:A1 4.886e+00
*RC slice_31/sipo_bit/U41:A1 4.944e+00
*RC slice_31/sipo_bit/U35:A1 4.941e+00
*RC slice_31/sipo_bit/U7:A2 4.942e+00
*RC slice_31/sipo_bit/U15:A2 4.943e+00
*RC slice_31/sipo_bit/U42:A1 4.860e+00
*RC slice_31/sipo_bit/U43:A1 4.848e+00
*RC slice_31/sipo_bit/U60:A1 4.903e+00
*RC slice_31/sipo_bit/U61:A1 4.858e+00
*RC slice_31/sipo_bit/U55:A1 4.868e+00
*RC slice_31/sipo_bit/U56:A1 4.834e+00
*RC slice_31/sipo_bit/U67:A1 4.889e+00
*RC slice_31/sipo_bit/U65:A1 4.871e+00
*RC slice_31/sipo_bit/U58:A1 4.900e+00
*RC slice_31/sipo_bit/U80:A 4.889e+00
*RC slice_31/sipo_bit/U62:A1 4.874e+00
*RC slice_31/sipo_bit/U59:A1 4.941e+00
*RC slice_31/sipo_bit/U57:A1 4.899e+00
*RC slice_31/sipo_bit/U68:A1 4.931e+00
*RC slice_31/sipo_bit/U63:A1 4.889e+00
*RC slice_31/sipo_bit/U69:A1 4.909e+00
*RC slice_30/sipo_bit/U6:A2 4.320e+00
*RC slice_30/sipo_bit/U54:A1 4.206e+00
*RC slice_30/sipo_bit/U53:A1 4.227e+00
*RC slice_30/sipo_bit/U78:A 4.247e+00
*RC slice_30/sipo_bit/U66:A1 4.236e+00
*RC slice_30/sipo_bit/U51:A4 4.248e+00
*RC slice_30/sipo_bit/U44:A2 4.242e+00
*RC slice_30/sipo_bit/U48:A1 4.249e+00
*RC slice_30/sipo_bit/U64:A1 4.262e+00
*RC slice_30/sipo_bit/U41:A1 4.320e+00
*RC slice_30/sipo_bit/U35:A1 4.317e+00
*RC slice_30/sipo_bit/U7:A2 4.319e+00
*RC slice_30/sipo_bit/U15:A2 4.319e+00
*RC slice_30/sipo_bit/U42:A1 4.236e+00
*RC slice_30/sipo_bit/U43:A1 4.224e+00
*RC slice_30/sipo_bit/U60:A1 4.280e+00
*RC slice_30/sipo_bit/U61:A1 4.234e+00
*RC slice_30/sipo_bit/U55:A1 4.244e+00
*RC slice_30/sipo_bit/U56:A1 4.210e+00
*RC slice_30/sipo_bit/U67:A1 4.265e+00
*RC slice_30/sipo_bit/U65:A1 4.248e+00
*RC slice_30/sipo_bit/U58:A1 4.276e+00
*RC slice_30/sipo_bit/U80:A 4.265e+00
*RC slice_30/sipo_bit/U62:A1 4.250e+00
*RC slice_30/sipo_bit/U59:A1 4.317e+00
*RC slice_30/sipo_bit/U57:A1 4.275e+00
*RC slice_30/sipo_bit/U68:A1 4.307e+00
*RC slice_30/sipo_bit/U63:A1 4.265e+00
*RC slice_30/sipo_bit/U69:A1 4.286e+00
*RC slice_29/sipo_bit/U6:A2 4.787e+00
*RC slice_29/sipo_bit/U54:A1 4.673e+00
*RC slice_29/sipo_bit/U53:A1 4.694e+00
*RC slice_29/sipo_bit/U78:A 4.714e+00
*RC slice_29/sipo_bit/U66:A1 4.703e+00
*RC slice_29/sipo_bit/U51:A4 4.715e+00
*RC slice_29/sipo_bit/U44:A2 4.709e+00
*RC slice_29/sipo_bit/U48:A1 4.716e+00
*RC slice_29/sipo_bit/U64:A1 4.729e+00
*RC slice_29/sipo_bit/U41:A1 4.787e+00
*RC slice_29/sipo_bit/U35:A1 4.784e+00
*RC slice_29/sipo_bit/U7:A2 4.786e+00
*RC slice_29/sipo_bit/U15:A2 4.786e+00
*RC slice_29/sipo_bit/U42:A1 4.703e+00
*RC slice_29/sipo_bit/U43:A1 4.691e+00
*RC slice_29/sipo_bit/U60:A1 4.747e+00
*RC slice_29/sipo_bit/U61:A1 4.701e+00
*RC slice_29/sipo_bit/U55:A1 4.711e+00
*RC slice_29/sipo_bit/U56:A1 4.677e+00
*RC slice_29/sipo_bit/U67:A1 4.732e+00
*RC slice_29/sipo_bit/U65:A1 4.715e+00
*RC slice_29/sipo_bit/U58:A1 4.743e+00
*RC slice_29/sipo_bit/U80:A 4.733e+00
*RC slice_29/sipo_bit/U62:A1 4.717e+00
*RC slice_29/sipo_bit/U59:A1 4.784e+00
*RC slice_29/sipo_bit/U57:A1 4.742e+00
*RC slice_29/sipo_bit/U68:A1 4.774e+00
*RC slice_29/sipo_bit/U63:A1 4.732e+00
*RC slice_29/sipo_bit/U69:A1 4.753e+00
*RC slice_28/sipo_bit/U6:A2 4.163e+00
*RC slice_28/sipo_bit/U54:A1 4.050e+00
*RC slice_28/sipo_bit/U53:A1 4.071e+00
*RC slice_28/sipo_bit/U78:A 4.090e+00
*RC slice_28/sipo_bit/U66:A1 4.080e+00
*RC slice_28/sipo_bit/U51:A4 4.091e+00
*RC slice_28/sipo_bit/U44:A2 4.085e+00
*RC slice_28/sipo_bit/U48:A1 4.093e+00
*RC slice_28/sipo_bit/U64:A1 4.106e+00
*RC slice_28/sipo_bit/U41:A1 4.164e+00
*RC slice_28/sipo_bit/U35:A1 4.160e+00
*RC slice_28/sipo_bit/U7:A2 4.162e+00
*RC slice_28/sipo_bit/U15:A2 4.162e+00
*RC slice_28/sipo_bit/U42:A1 4.080e+00
*RC slice_28/sipo_bit/U43:A1 4.067e+00
*RC slice_28/sipo_bit/U60:A1 4.123e+00
*RC slice_28/sipo_bit/U61:A1 4.077e+00
*RC slice_28/sipo_bit/U55:A1 4.088e+00
*RC slice_28/sipo_bit/U56:A1 4.054e+00
*RC slice_28/sipo_bit/U67:A1 4.109e+00
*RC slice_28/sipo_bit/U65:A1 4.091e+00
*RC slice_28/sipo_bit/U58:A1 4.120e+00
*RC slice_28/sipo_bit/U80:A 4.109e+00
*RC slice_28/sipo_bit/U62:A1 4.094e+00
*RC slice_28/sipo_bit/U59:A1 4.160e+00
*RC slice_28/sipo_bit/U57:A1 4.119e+00
*RC slice_28/sipo_bit/U68:A1 4.150e+00
*RC slice_28/sipo_bit/U63:A1 4.109e+00
*RC slice_28/sipo_bit/U69:A1 4.129e+00
*RC slice_27/sipo_bit/U6:A2 4.419e+00
*RC slice_27/sipo_bit/U54:A1 4.306e+00
*RC slice_27/sipo_bit/U53:A1 4.327e+00
*RC slice_27/sipo_bit/U78:A 4.346e+00
*RC slice_27/sipo_bit/U66:A1 4.336e+00
*RC slice_27/sipo_bit/U51:A4 4.347e+00
*RC slice_27/sipo_bit/U44:A2 4.341e+00
*RC slice_27/sipo_bit/U48:A1 4.349e+00
*RC slice_27/sipo_bit/U64:A1 4.362e+00
*RC slice_27/sipo_bit/U41:A1 4.420e+00
*RC slice_27/sipo_bit/U35:A1 4.417e+00
*RC slice_27/sipo_bit/U7:A2 4.418e+00
*RC slice_27/sipo_bit/U15:A2 4.419e+00
*RC slice_27/sipo_bit/U42:A1 4.336e+00
*RC slice_27/sipo_bit/U43:A1 4.324e+00
*RC slice_27/sipo_bit/U60:A1 4.379e+00
*RC slice_27/sipo_bit/U61:A1 4.334e+00
*RC slice_27/sipo_bit/U55:A1 4.344e+00
*RC slice_27/sipo_bit/U56:A1 4.310e+00
*RC slice_27/sipo_bit/U67:A1 4.365e+00
*RC slice_27/sipo_bit/U65:A1 4.347e+00
*RC slice_27/sipo_bit/U58:A1 4.376e+00
*RC slice_27/sipo_bit/U80:A 4.365e+00
*RC slice_27/sipo_bit/U62:A1 4.350e+00
*RC slice_27/sipo_bit/U59:A1 4.417e+00
*RC slice_27/sipo_bit/U57:A1 4.375e+00
*RC slice_27/sipo_bit/U68:A1 4.407e+00
*RC slice_27/sipo_bit/U63:A1 4.365e+00
*RC slice_27/sipo_bit/U69:A1 4.385e+00
*RC slice_26/sipo_bit/U6:A2 3.796e+00
*RC slice_26/sipo_bit/U54:A1 3.682e+00
*RC slice_26/sipo_bit/U53:A1 3.703e+00
*RC slice_26/sipo_bit/U78:A 3.723e+00
*RC slice_26/sipo_bit/U66:A1 3.712e+00
*RC slice_26/sipo_bit/U51:A4 3.724e+00
*RC slice_26/sipo_bit/U44:A2 3.718e+00
*RC slice_26/sipo_bit/U48:A1 3.725e+00
*RC slice_26/sipo_bit/U64:A1 3.738e+00
*RC slice_26/sipo_bit/U41:A1 3.796e+00
*RC slice_26/sipo_bit/U35:A1 3.793e+00
*RC slice_26/sipo_bit/U7:A2 3.795e+00
*RC slice_26/sipo_bit/U15:A2 3.795e+00
*RC slice_26/sipo_bit/U42:A1 3.712e+00
*RC slice_26/sipo_bit/U43:A1 3.700e+00
*RC slice_26/sipo_bit/U60:A1 3.756e+00
*RC slice_26/sipo_bit/U61:A1 3.710e+00
*RC slice_26/sipo_bit/U55:A1 3.720e+00
*RC slice_26/sipo_bit/U56:A1 3.686e+00
*RC slice_26/sipo_bit/U67:A1 3.741e+00
*RC slice_26/sipo_bit/U65:A1 3.723e+00
*RC slice_26/sipo_bit/U58:A1 3.752e+00
*RC slice_26/sipo_bit/U80:A 3.741e+00
*RC slice_26/sipo_bit/U62:A1 3.726e+00
*RC slice_26/sipo_bit/U59:A1 3.793e+00
*RC slice_26/sipo_bit/U57:A1 3.751e+00
*RC slice_26/sipo_bit/U68:A1 3.783e+00
*RC slice_26/sipo_bit/U63:A1 3.741e+00
*RC slice_26/sipo_bit/U69:A1 3.762e+00
*RC slice_25/sipo_bit/U6:A2 4.263e+00
*RC slice_25/sipo_bit/U54:A1 4.149e+00
*RC slice_25/sipo_bit/U53:A1 4.170e+00
*RC slice_25/sipo_bit/U78:A 4.190e+00
*RC slice_25/sipo_bit/U66:A1 4.179e+00
*RC slice_25/sipo_bit/U51:A4 4.191e+00
*RC slice_25/sipo_bit/U44:A2 4.185e+00
*RC slice_25/sipo_bit/U48:A1 4.192e+00
*RC slice_25/sipo_bit/U64:A1 4.205e+00
*RC slice_25/sipo_bit/U41:A1 4.263e+00
*RC slice_25/sipo_bit/U35:A1 4.260e+00
*RC slice_25/sipo_bit/U7:A2 4.262e+00
*RC slice_25/sipo_bit/U15:A2 4.262e+00
*RC slice_25/sipo_bit/U42:A1 4.179e+00
*RC slice_25/sipo_bit/U43:A1 4.167e+00
*RC slice_25/sipo_bit/U60:A1 4.223e+00
*RC slice_25/sipo_bit/U61:A1 4.177e+00
*RC slice_25/sipo_bit/U55:A1 4.187e+00
*RC slice_25/sipo_bit/U56:A1 4.153e+00
*RC slice_25/sipo_bit/U67:A1 4.208e+00
*RC slice_25/sipo_bit/U65:A1 4.190e+00
*RC slice_25/sipo_bit/U58:A1 4.219e+00
*RC slice_25/sipo_bit/U80:A 4.208e+00
*RC slice_25/sipo_bit/U62:A1 4.193e+00
*RC slice_25/sipo_bit/U59:A1 4.260e+00
*RC slice_25/sipo_bit/U57:A1 4.218e+00
*RC slice_25/sipo_bit/U68:A1 4.250e+00
*RC slice_25/sipo_bit/U63:A1 4.208e+00
*RC slice_25/sipo_bit/U69:A1 4.229e+00
*RC slice_24/sipo_bit/U6:A2 3.639e+00
*RC slice_24/sipo_bit/U54:A1 3.525e+00
*RC slice_24/sipo_bit/U53:A1 3.546e+00
*RC slice_24/sipo_bit/U78:A 3.566e+00
*RC slice_24/sipo_bit/U66:A1 3.555e+00
*RC slice_24/sipo_bit/U51:A4 3.567e+00
*RC slice_24/sipo_bit/U44:A2 3.561e+00
*RC slice_24/sipo_bit/U48:A1 3.568e+00
*RC slice_24/sipo_bit/U64:A1 3.581e+00
*RC slice_24/sipo_bit/U41:A1 3.640e+00
*RC slice_24/sipo_bit/U35:A1 3.636e+00
*RC slice_24/sipo_bit/U7:A2 3.638e+00
*RC slice_24/sipo_bit/U15:A2 3.638e+00
*RC slice_24/sipo_bit/U42:A1 3.555e+00
*RC slice_24/sipo_bit/U43:A1 3.543e+00
*RC slice_24/sipo_bit/U60:A1 3.599e+00
*RC slice_24/sipo_bit/U61:A1 3.553e+00
*RC slice_24/sipo_bit/U55:A1 3.564e+00
*RC slice_24/sipo_bit/U56:A1 3.530e+00
*RC slice_24/sipo_bit/U67:A1 3.584e+00
*RC slice_24/sipo_bit/U65:A1 3.567e+00
*RC slice_24/sipo_bit/U58:A1 3.596e+00
*RC slice_24/sipo_bit/U80:A 3.584e+00
*RC slice_24/sipo_bit/U62:A1 3.570e+00
*RC slice_24/sipo_bit/U59:A1 3.636e+00
*RC slice_24/sipo_bit/U57:A1 3.595e+00
*RC slice_24/sipo_bit/U68:A1 3.626e+00
*RC slice_24/sipo_bit/U63:A1 3.585e+00
*RC slice_24/sipo_bit/U69:A1 3.605e+00
*RC slice_23/sipo_bit/U6:A2 3.696e+00
*RC slice_23/sipo_bit/U54:A1 3.582e+00
*RC slice_23/sipo_bit/U53:A1 3.604e+00
*RC slice_23/sipo_bit/U78:A 3.623e+00
*RC slice_23/sipo_bit/U66:A1 3.612e+00
*RC slice_23/sipo_bit/U51:A4 3.624e+00
*RC slice_23/sipo_bit/U44:A2 3.618e+00
*RC slice_23/sipo_bit/U48:A1 3.626e+00
*RC slice_23/sipo_bit/U64:A1 3.638e+00
*RC slice_23/sipo_bit/U41:A1 3.697e+00
*RC slice_23/sipo_bit/U35:A1 3.693e+00
*RC slice_23/sipo_bit/U7:A2 3.695e+00
*RC slice_23/sipo_bit/U15:A2 3.695e+00
*RC slice_23/sipo_bit/U42:A1 3.613e+00
*RC slice_23/sipo_bit/U43:A1 3.600e+00
*RC slice_23/sipo_bit/U60:A1 3.656e+00
*RC slice_23/sipo_bit/U61:A1 3.610e+00
*RC slice_23/sipo_bit/U55:A1 3.621e+00
*RC slice_23/sipo_bit/U56:A1 3.587e+00
*RC slice_23/sipo_bit/U67:A1 3.642e+00
*RC slice_23/sipo_bit/U65:A1 3.624e+00
*RC slice_23/sipo_bit/U58:A1 3.653e+00
*RC slice_23/sipo_bit/U80:A 3.641e+00
*RC slice_23/sipo_bit/U62:A1 3.627e+00
*RC slice_23/sipo_bit/U59:A1 3.693e+00
*RC slice_23/sipo_bit/U57:A1 3.652e+00
*RC slice_23/sipo_bit/U68:A1 3.683e+00
*RC slice_23/sipo_bit/U63:A1 3.642e+00
*RC slice_23/sipo_bit/U69:A1 3.662e+00
*RC slice_22/sipo_bit/U6:A2 3.072e+00
*RC slice_22/sipo_bit/U54:A1 2.959e+00
*RC slice_22/sipo_bit/U53:A1 2.980e+00
*RC slice_22/sipo_bit/U78:A 2.999e+00
*RC slice_22/sipo_bit/U66:A1 2.989e+00
*RC slice_22/sipo_bit/U51:A4 3.000e+00
*RC slice_22/sipo_bit/U44:A2 2.994e+00
*RC slice_22/sipo_bit/U48:A1 3.002e+00
*RC slice_22/sipo_bit/U64:A1 3.015e+00
*RC slice_22/sipo_bit/U41:A1 3.073e+00
*RC slice_22/sipo_bit/U35:A1 3.070e+00
*RC slice_22/sipo_bit/U7:A2 3.071e+00
*RC slice_22/sipo_bit/U15:A2 3.072e+00
*RC slice_22/sipo_bit/U42:A1 2.989e+00
*RC slice_22/sipo_bit/U43:A1 2.977e+00
*RC slice_22/sipo_bit/U60:A1 3.032e+00
*RC slice_22/sipo_bit/U61:A1 2.987e+00
*RC slice_22/sipo_bit/U55:A1 2.997e+00
*RC slice_22/sipo_bit/U56:A1 2.963e+00
*RC slice_22/sipo_bit/U67:A1 3.018e+00
*RC slice_22/sipo_bit/U65:A1 3.000e+00
*RC slice_22/sipo_bit/U58:A1 3.029e+00
*RC slice_22/sipo_bit/U80:A 3.017e+00
*RC slice_22/sipo_bit/U62:A1 3.003e+00
*RC slice_22/sipo_bit/U59:A1 3.070e+00
*RC slice_22/sipo_bit/U57:A1 3.028e+00
*RC slice_22/sipo_bit/U68:A1 3.060e+00
*RC slice_22/sipo_bit/U63:A1 3.018e+00
*RC slice_22/sipo_bit/U69:A1 3.038e+00
*RC slice_21/sipo_bit/U6:A2 3.539e+00
*RC slice_21/sipo_bit/U54:A1 3.426e+00
*RC slice_21/sipo_bit/U53:A1 3.447e+00
*RC slice_21/sipo_bit/U78:A 3.466e+00
*RC slice_21/sipo_bit/U66:A1 3.456e+00
*RC slice_21/sipo_bit/U51:A4 3.467e+00
*RC slice_21/sipo_bit/U44:A2 3.462e+00
*RC slice_21/sipo_bit/U48:A1 3.469e+00
*RC slice_21/sipo_bit/U64:A1 3.482e+00
*RC slice_21/sipo_bit/U41:A1 3.540e+00
*RC slice_21/sipo_bit/U35:A1 3.537e+00
*RC slice_21/sipo_bit/U7:A2 3.538e+00
*RC slice_21/sipo_bit/U15:A2 3.539e+00
*RC slice_21/sipo_bit/U42:A1 3.456e+00
*RC slice_21/sipo_bit/U43:A1 3.444e+00
*RC slice_21/sipo_bit/U60:A1 3.499e+00
*RC slice_21/sipo_bit/U61:A1 3.454e+00
*RC slice_21/sipo_bit/U55:A1 3.464e+00
*RC slice_21/sipo_bit/U56:A1 3.430e+00
*RC slice_21/sipo_bit/U67:A1 3.485e+00
*RC slice_21/sipo_bit/U65:A1 3.467e+00
*RC slice_21/sipo_bit/U58:A1 3.496e+00
*RC slice_21/sipo_bit/U80:A 3.485e+00
*RC slice_21/sipo_bit/U62:A1 3.470e+00
*RC slice_21/sipo_bit/U59:A1 3.537e+00
*RC slice_21/sipo_bit/U57:A1 3.495e+00
*RC slice_21/sipo_bit/U68:A1 3.527e+00
*RC slice_21/sipo_bit/U63:A1 3.485e+00
*RC slice_21/sipo_bit/U69:A1 3.505e+00
*RC slice_20/sipo_bit/U6:A2 2.916e+00
*RC slice_20/sipo_bit/U54:A1 2.802e+00
*RC slice_20/sipo_bit/U53:A1 2.823e+00
*RC slice_20/sipo_bit/U78:A 2.842e+00
*RC slice_20/sipo_bit/U66:A1 2.832e+00
*RC slice_20/sipo_bit/U51:A4 2.844e+00
*RC slice_20/sipo_bit/U44:A2 2.838e+00
*RC slice_20/sipo_bit/U48:A1 2.845e+00
*RC slice_20/sipo_bit/U64:A1 2.858e+00
*RC slice_20/sipo_bit/U41:A1 2.916e+00
*RC slice_20/sipo_bit/U35:A1 2.913e+00
*RC slice_20/sipo_bit/U7:A2 2.915e+00
*RC slice_20/sipo_bit/U15:A2 2.915e+00
*RC slice_20/sipo_bit/U42:A1 2.832e+00
*RC slice_20/sipo_bit/U43:A1 2.820e+00
*RC slice_20/sipo_bit/U60:A1 2.876e+00
*RC slice_20/sipo_bit/U61:A1 2.830e+00
*RC slice_20/sipo_bit/U55:A1 2.840e+00
*RC slice_20/sipo_bit/U56:A1 2.806e+00
*RC slice_20/sipo_bit/U67:A1 2.861e+00
*RC slice_20/sipo_bit/U65:A1 2.843e+00
*RC slice_20/sipo_bit/U58:A1 2.872e+00
*RC slice_20/sipo_bit/U80:A 2.861e+00
*RC slice_20/sipo_bit/U62:A1 2.846e+00
*RC slice_20/sipo_bit/U59:A1 2.913e+00
*RC slice_20/sipo_bit/U57:A1 2.871e+00
*RC slice_20/sipo_bit/U68:A1 2.903e+00
*RC slice_20/sipo_bit/U63:A1 2.861e+00
*RC slice_20/sipo_bit/U69:A1 2.882e+00
*RC slice_19/sipo_bit/U6:A2 3.172e+00
*RC slice_19/sipo_bit/U54:A1 3.058e+00
*RC slice_19/sipo_bit/U53:A1 3.079e+00
*RC slice_19/sipo_bit/U78:A 3.099e+00
*RC slice_19/sipo_bit/U66:A1 3.088e+00
*RC slice_19/sipo_bit/U51:A4 3.100e+00
*RC slice_19/sipo_bit/U44:A2 3.094e+00
*RC slice_19/sipo_bit/U48:A1 3.101e+00
*RC slice_19/sipo_bit/U64:A1 3.114e+00
*RC slice_19/sipo_bit/U41:A1 3.173e+00
*RC slice_19/sipo_bit/U35:A1 3.169e+00
*RC slice_19/sipo_bit/U7:A2 3.171e+00
*RC slice_19/sipo_bit/U15:A2 3.171e+00
*RC slice_19/sipo_bit/U42:A1 3.088e+00
*RC slice_19/sipo_bit/U43:A1 3.076e+00
*RC slice_19/sipo_bit/U60:A1 3.132e+00
*RC slice_19/sipo_bit/U61:A1 3.086e+00
*RC slice_19/sipo_bit/U55:A1 3.097e+00
*RC slice_19/sipo_bit/U56:A1 3.063e+00
*RC slice_19/sipo_bit/U67:A1 3.117e+00
*RC slice_19/sipo_bit/U65:A1 3.100e+00
*RC slice_19/sipo_bit/U58:A1 3.129e+00
*RC slice_19/sipo_bit/U80:A 3.117e+00
*RC slice_19/sipo_bit/U62:A1 3.102e+00
*RC slice_19/sipo_bit/U59:A1 3.169e+00
*RC slice_19/sipo_bit/U57:A1 3.128e+00
*RC slice_19/sipo_bit/U68:A1 3.159e+00
*RC slice_19/sipo_bit/U63:A1 3.118e+00
*RC slice_19/sipo_bit/U69:A1 3.138e+00
*RC slice_18/sipo_bit/U6:A2 2.548e+00
*RC slice_18/sipo_bit/U54:A1 2.435e+00
*RC slice_18/sipo_bit/U53:A1 2.456e+00
*RC slice_18/sipo_bit/U78:A 2.475e+00
*RC slice_18/sipo_bit/U66:A1 2.465e+00
*RC slice_18/sipo_bit/U51:A4 2.476e+00
*RC slice_18/sipo_bit/U44:A2 2.470e+00
*RC slice_18/sipo_bit/U48:A1 2.478e+00
*RC slice_18/sipo_bit/U64:A1 2.491e+00
*RC slice_18/sipo_bit/U41:A1 2.549e+00
*RC slice_18/sipo_bit/U35:A1 2.545e+00
*RC slice_18/sipo_bit/U7:A2 2.547e+00
*RC slice_18/sipo_bit/U15:A2 2.547e+00
*RC slice_18/sipo_bit/U42:A1 2.465e+00
*RC slice_18/sipo_bit/U43:A1 2.453e+00
*RC slice_18/sipo_bit/U60:A1 2.508e+00
*RC slice_18/sipo_bit/U61:A1 2.463e+00
*RC slice_18/sipo_bit/U55:A1 2.473e+00
*RC slice_18/sipo_bit/U56:A1 2.439e+00
*RC slice_18/sipo_bit/U67:A1 2.494e+00
*RC slice_18/sipo_bit/U65:A1 2.476e+00
*RC slice_18/sipo_bit/U58:A1 2.505e+00
*RC slice_18/sipo_bit/U80:A 2.493e+00
*RC slice_18/sipo_bit/U62:A1 2.479e+00
*RC slice_18/sipo_bit/U59:A1 2.545e+00
*RC slice_18/sipo_bit/U57:A1 2.504e+00
*RC slice_18/sipo_bit/U68:A1 2.535e+00
*RC slice_18/sipo_bit/U63:A1 2.494e+00
*RC slice_18/sipo_bit/U69:A1 2.514e+00
*RC slice_17/sipo_bit/U6:A2 3.015e+00
*RC slice_17/sipo_bit/U54:A1 2.902e+00
*RC slice_17/sipo_bit/U53:A1 2.923e+00
*RC slice_17/sipo_bit/U78:A 2.942e+00
*RC slice_17/sipo_bit/U66:A1 2.932e+00
*RC slice_17/sipo_bit/U51:A4 2.943e+00
*RC slice_17/sipo_bit/U44:A2 2.937e+00
*RC slice_17/sipo_bit/U48:A1 2.945e+00
*RC slice_17/sipo_bit/U64:A1 2.958e+00
*RC slice_17/sipo_bit/U41:A1 3.016e+00
*RC slice_17/sipo_bit/U35:A1 3.013e+00
*RC slice_17/sipo_bit/U7:A2 3.014e+00
*RC slice_17/sipo_bit/U15:A2 3.015e+00
*RC slice_17/sipo_bit/U42:A1 2.932e+00
*RC slice_17/sipo_bit/U43:A1 2.920e+00
*RC slice_17/sipo_bit/U60:A1 2.975e+00
*RC slice_17/sipo_bit/U61:A1 2.930e+00
*RC slice_17/sipo_bit/U55:A1 2.940e+00
*RC slice_17/sipo_bit/U56:A1 2.906e+00
*RC slice_17/sipo_bit/U67:A1 2.961e+00
*RC slice_17/sipo_bit/U65:A1 2.943e+00
*RC slice_17/sipo_bit/U58:A1 2.972e+00
*RC slice_17/sipo_bit/U80:A 2.960e+00
*RC slice_17/sipo_bit/U62:A1 2.946e+00
*RC slice_17/sipo_bit/U59:A1 3.012e+00
*RC slice_17/sipo_bit/U57:A1 2.971e+00
*RC slice_17/sipo_bit/U68:A1 3.003e+00
*RC slice_17/sipo_bit/U63:A1 2.961e+00
*RC slice_17/sipo_bit/U69:A1 2.981e+00
*RC slice_16/sipo_bit/U6:A2 2.391e+00
*RC slice_16/sipo_bit/U54:A1 2.278e+00
*RC slice_16/sipo_bit/U53:A1 2.299e+00
*RC slice_16/sipo_bit/U78:A 2.318e+00
*RC slice_16/sipo_bit/U66:A1 2.308e+00
*RC slice_16/sipo_bit/U51:A4 2.320e+00
*RC slice_16/sipo_bit/U44:A2 2.314e+00
*RC slice_16/sipo_bit/U48:A1 2.321e+00
*RC slice_16/sipo_bit/U64:A1 2.334e+00
*RC slice_16/sipo_bit/U41:A1 2.392e+00
*RC slice_16/sipo_bit/U35:A1 2.389e+00
*RC slice_16/sipo_bit/U7:A2 2.390e+00
*RC slice_16/sipo_bit/U15:A2 2.391e+00
*RC slice_16/sipo_bit/U42:A1 2.308e+00
*RC slice_16/sipo_bit/U43:A1 2.296e+00
*RC slice_16/sipo_bit/U60:A1 2.352e+00
*RC slice_16/sipo_bit/U61:A1 2.306e+00
*RC slice_16/sipo_bit/U55:A1 2.316e+00
*RC slice_16/sipo_bit/U56:A1 2.282e+00
*RC slice_16/sipo_bit/U67:A1 2.337e+00
*RC slice_16/sipo_bit/U65:A1 2.319e+00
*RC slice_16/sipo_bit/U58:A1 2.348e+00
*RC slice_16/sipo_bit/U80:A 2.336e+00
*RC slice_16/sipo_bit/U62:A1 2.322e+00
*RC slice_16/sipo_bit/U59:A1 2.389e+00
*RC slice_16/sipo_bit/U57:A1 2.347e+00
*RC slice_16/sipo_bit/U68:A1 2.379e+00
*RC slice_16/sipo_bit/U63:A1 2.337e+00
*RC slice_16/sipo_bit/U69:A1 2.357e+00
*RC slice_15/sipo_bit/U6:A2 2.449e+00
*RC slice_15/sipo_bit/U54:A1 2.335e+00
*RC slice_15/sipo_bit/U53:A1 2.356e+00
*RC slice_15/sipo_bit/U78:A 2.375e+00
*RC slice_15/sipo_bit/U66:A1 2.365e+00
*RC slice_15/sipo_bit/U51:A4 2.377e+00
*RC slice_15/sipo_bit/U44:A2 2.371e+00
*RC slice_15/sipo_bit/U48:A1 2.378e+00
*RC slice_15/sipo_bit/U64:A1 2.391e+00
*RC slice_15/sipo_bit/U41:A1 2.449e+00
*RC slice_15/sipo_bit/U35:A1 2.446e+00
*RC slice_15/sipo_bit/U7:A2 2.448e+00
*RC slice_15/sipo_bit/U15:A2 2.448e+00
*RC slice_15/sipo_bit/U42:A1 2.365e+00
*RC slice_15/sipo_bit/U43:A1 2.353e+00
*RC slice_15/sipo_bit/U60:A1 2.409e+00
*RC slice_15/sipo_bit/U61:A1 2.363e+00
*RC slice_15/sipo_bit/U55:A1 2.373e+00
*RC slice_15/sipo_bit/U56:A1 2.339e+00
*RC slice_15/sipo_bit/U67:A1 2.394e+00
*RC slice_15/sipo_bit/U65:A1 2.376e+00
*RC slice_15/sipo_bit/U58:A1 2.405e+00
*RC slice_15/sipo_bit/U80:A 2.394e+00
*RC slice_15/sipo_bit/U62:A1 2.379e+00
*RC slice_15/sipo_bit/U59:A1 2.446e+00
*RC slice_15/sipo_bit/U57:A1 2.404e+00
*RC slice_15/sipo_bit/U68:A1 2.436e+00
*RC slice_15/sipo_bit/U63:A1 2.394e+00
*RC slice_15/sipo_bit/U69:A1 2.415e+00
*RC slice_14/sipo_bit/U6:A2 1.825e+00
*RC slice_14/sipo_bit/U54:A1 1.711e+00
*RC slice_14/sipo_bit/U53:A1 1.732e+00
*RC slice_14/sipo_bit/U78:A 1.752e+00
*RC slice_14/sipo_bit/U66:A1 1.741e+00
*RC slice_14/sipo_bit/U51:A4 1.753e+00
*RC slice_14/sipo_bit/U44:A2 1.747e+00
*RC slice_14/sipo_bit/U48:A1 1.754e+00
*RC slice_14/sipo_bit/U64:A1 1.767e+00
*RC slice_14/sipo_bit/U41:A1 1.826e+00
*RC slice_14/sipo_bit/U35:A1 1.822e+00
*RC slice_14/sipo_bit/U7:A2 1.824e+00
*RC slice_14/sipo_bit/U15:A2 1.824e+00
*RC slice_14/sipo_bit/U42:A1 1.741e+00
*RC slice_14/sipo_bit/U43:A1 1.729e+00
*RC slice_14/sipo_bit/U60:A1 1.785e+00
*RC slice_14/sipo_bit/U61:A1 1.739e+00
*RC slice_14/sipo_bit/U55:A1 1.750e+00
*RC slice_14/sipo_bit/U56:A1 1.716e+00
*RC slice_14/sipo_bit/U67:A1 1.770e+00
*RC slice_14/sipo_bit/U65:A1 1.753e+00
*RC slice_14/sipo_bit/U58:A1 1.782e+00
*RC slice_14/sipo_bit/U80:A 1.770e+00
*RC slice_14/sipo_bit/U62:A1 1.755e+00
*RC slice_14/sipo_bit/U59:A1 1.822e+00
*RC slice_14/sipo_bit/U57:A1 1.780e+00
*RC slice_14/sipo_bit/U68:A1 1.812e+00
*RC slice_14/sipo_bit/U63:A1 1.770e+00
*RC slice_14/sipo_bit/U69:A1 1.791e+00
*RC slice_13/sipo_bit/U6:A2 2.292e+00
*RC slice_13/sipo_bit/U54:A1 2.178e+00
*RC slice_13/sipo_bit/U53:A1 2.199e+00
*RC slice_13/sipo_bit/U78:A 2.219e+00
*RC slice_13/sipo_bit/U66:A1 2.208e+00
*RC slice_13/sipo_bit/U51:A4 2.220e+00
*RC slice_13/sipo_bit/U44:A2 2.214e+00
*RC slice_13/sipo_bit/U48:A1 2.221e+00
*RC slice_13/sipo_bit/U64:A1 2.234e+00
*RC slice_13/sipo_bit/U41:A1 2.293e+00
*RC slice_13/sipo_bit/U35:A1 2.289e+00
*RC slice_13/sipo_bit/U7:A2 2.291e+00
*RC slice_13/sipo_bit/U15:A2 2.291e+00
*RC slice_13/sipo_bit/U42:A1 2.208e+00
*RC slice_13/sipo_bit/U43:A1 2.196e+00
*RC slice_13/sipo_bit/U60:A1 2.252e+00
*RC slice_13/sipo_bit/U61:A1 2.206e+00
*RC slice_13/sipo_bit/U55:A1 2.217e+00
*RC slice_13/sipo_bit/U56:A1 2.183e+00
*RC slice_13/sipo_bit/U67:A1 2.237e+00
*RC slice_13/sipo_bit/U65:A1 2.220e+00
*RC slice_13/sipo_bit/U58:A1 2.249e+00
*RC slice_13/sipo_bit/U80:A 2.237e+00
*RC slice_13/sipo_bit/U62:A1 2.223e+00
*RC slice_13/sipo_bit/U59:A1 2.289e+00
*RC slice_13/sipo_bit/U57:A1 2.248e+00
*RC slice_13/sipo_bit/U68:A1 2.279e+00
*RC slice_13/sipo_bit/U63:A1 2.238e+00
*RC slice_13/sipo_bit/U69:A1 2.258e+00
*RC slice_12/sipo_bit/U6:A2 1.668e+00
*RC slice_12/sipo_bit/U54:A1 1.555e+00
*RC slice_12/sipo_bit/U53:A1 1.576e+00
*RC slice_12/sipo_bit/U78:A 1.595e+00
*RC slice_12/sipo_bit/U66:A1 1.585e+00
*RC slice_12/sipo_bit/U51:A4 1.596e+00
*RC slice_12/sipo_bit/U44:A2 1.590e+00
*RC slice_12/sipo_bit/U48:A1 1.598e+00
*RC slice_12/sipo_bit/U64:A1 1.611e+00
*RC slice_12/sipo_bit/U41:A1 1.669e+00
*RC slice_12/sipo_bit/U35:A1 1.665e+00
*RC slice_12/sipo_bit/U7:A2 1.667e+00
*RC slice_12/sipo_bit/U15:A2 1.667e+00
*RC slice_12/sipo_bit/U42:A1 1.585e+00
*RC slice_12/sipo_bit/U43:A1 1.573e+00
*RC slice_12/sipo_bit/U60:A1 1.628e+00
*RC slice_12/sipo_bit/U61:A1 1.583e+00
*RC slice_12/sipo_bit/U55:A1 1.593e+00
*RC slice_12/sipo_bit/U56:A1 1.559e+00
*RC slice_12/sipo_bit/U67:A1 1.614e+00
*RC slice_12/sipo_bit/U65:A1 1.596e+00
*RC slice_12/sipo_bit/U58:A1 1.625e+00
*RC slice_12/sipo_bit/U80:A 1.613e+00
*RC slice_12/sipo_bit/U62:A1 1.599e+00
*RC slice_12/sipo_bit/U59:A1 1.665e+00
*RC slice_12/sipo_bit/U57:A1 1.624e+00
*RC slice_12/sipo_bit/U68:A1 1.655e+00
*RC slice_12/sipo_bit/U63:A1 1.614e+00
*RC slice_12/sipo_bit/U69:A1 1.634e+00
*RC slice_11/sipo_bit/U6:A2 1.924e+00
*RC slice_11/sipo_bit/U54:A1 1.811e+00
*RC slice_11/sipo_bit/U53:A1 1.832e+00
*RC slice_11/sipo_bit/U78:A 1.851e+00
*RC slice_11/sipo_bit/U66:A1 1.841e+00
*RC slice_11/sipo_bit/U51:A4 1.853e+00
*RC slice_11/sipo_bit/U44:A2 1.847e+00
*RC slice_11/sipo_bit/U48:A1 1.854e+00
*RC slice_11/sipo_bit/U64:A1 1.867e+00
*RC slice_11/sipo_bit/U41:A1 1.925e+00
*RC slice_11/sipo_bit/U35:A1 1.922e+00
*RC slice_11/sipo_bit/U7:A2 1.923e+00
*RC slice_11/sipo_bit/U15:A2 1.924e+00
*RC slice_11/sipo_bit/U42:A1 1.841e+00
*RC slice_11/sipo_bit/U43:A1 1.829e+00
*RC slice_11/sipo_bit/U60:A1 1.884e+00
*RC slice_11/sipo_bit/U61:A1 1.839e+00
*RC slice_11/sipo_bit/U55:A1 1.849e+00
*RC slice_11/sipo_bit/U56:A1 1.815e+00
*RC slice_11/sipo_bit/U67:A1 1.870e+00
*RC slice_11/sipo_bit/U65:A1 1.852e+00
*RC slice_11/sipo_bit/U58:A1 1.881e+00
*RC slice_11/sipo_bit/U80:A 1.869e+00
*RC slice_11/sipo_bit/U62:A1 1.855e+00
*RC slice_11/sipo_bit/U59:A1 1.922e+00
*RC slice_11/sipo_bit/U57:A1 1.880e+00
*RC slice_11/sipo_bit/U68:A1 1.912e+00
*RC slice_11/sipo_bit/U63:A1 1.870e+00
*RC slice_11/sipo_bit/U69:A1 1.890e+00